<?xml version="1.0" encoding="UTF-8"?>

<!-- generated on 2025-10-03 00:45:35 by Eclipse SUMO netedit Version 1.22.0
<neteditConfiguration xmlns:xsi="http://www.w3.org/2001/XMLSchema-instance" xsi:noNamespaceSchemaLocation="http://sumo.dlr.de/xsd/neteditConfiguration.xsd">

    <input>
        <sumocfg-file value="C:\Users\EDMILSON\Documents\BrumadoxRPacheco - Copia\BrumadoxRPacheco.sumocfg"/>
        <route-files value="C:\Users\EDMILSON\Documents\BrumadoxRPacheco - Copia\BrumadoxRPacheco.rou.xml"/>
        <sumo-net-file value="C:\Users\EDMILSON\Documents\BrumadoxRPacheco - Copia\BrumadoxRPacheco.net.xml"/>
    </input>

    <output>
        <output-file value="C:\Users\EDMILSON\Documents\BrumadoxRPacheco - Copia\BrumadoxRPacheco.net.xml"/>
        <output.street-names value="true"/>
    </output>

    <processing>
        <geometry.min-radius.fix.railways value="false"/>
        <geometry.max-grade.fix value="false"/>
        <offset.disable-normalization value="true"/>
        <lefthand value="0"/>
    </processing>

    <junctions>
        <no-turnarounds value="true"/>
        <junctions.corner-detail value="5"/>
        <junctions.limit-turn-speed value="5.50"/>
        <rectangular-lane-cut value="0"/>
    </junctions>

    <pedestrian>
        <walkingareas value="0"/>
    </pedestrian>

</neteditConfiguration>
-->

<net version="1.20" junctionCornerDetail="5" limitTurnSpeed="5.50" xmlns:xsi="http://www.w3.org/2001/XMLSchema-instance" xsi:noNamespaceSchemaLocation="http://sumo.dlr.de/xsd/net_file.xsd">

    <location netOffset="-299391.74,1643315.99" convBoundary="0.00,0.00,2490.45,1625.50" origBoundary="-40.864390,-14.856814,-40.841289,-14.842153" projParameter="+proj=utm +zone=24 +ellps=WGS84 +datum=WGS84 +units=m +no_defs"/>

    <type id="highway.primary" priority="12" numLanes="2" speed="13.89" disallow="tram rail_urban rail rail_electric rail_fast ship container cable_car subway aircraft wheelchair scooter drone" oneway="0"/>
    <type id="highway.residential" priority="3" numLanes="1" speed="13.89" disallow="tram rail_urban rail rail_electric rail_fast ship container cable_car subway aircraft wheelchair scooter drone" oneway="0"/>
    <type id="highway.secondary" priority="11" numLanes="1" speed="13.89" disallow="tram rail_urban rail rail_electric rail_fast ship container cable_car subway aircraft wheelchair scooter drone" oneway="0"/>
    <type id="highway.secondary_link" priority="6" numLanes="1" speed="13.89" disallow="tram rail_urban rail rail_electric rail_fast ship container cable_car subway aircraft wheelchair scooter drone" oneway="0"/>
    <type id="highway.service" priority="1" numLanes="1" speed="5.56" allow="pedestrian delivery bicycle" oneway="0"/>
    <type id="highway.tertiary" priority="10" numLanes="1" speed="13.89" disallow="tram rail_urban rail rail_electric rail_fast ship container cable_car subway aircraft wheelchair scooter drone" oneway="0"/>
    <type id="highway.trunk" priority="13" numLanes="2" speed="13.89" disallow="pedestrian bicycle tram rail_urban rail rail_electric rail_fast ship container cable_car subway aircraft wheelchair scooter drone" oneway="0"/>
    <type id="highway.trunk_link" priority="8" numLanes="1" speed="13.89" disallow="pedestrian bicycle tram rail_urban rail rail_electric rail_fast ship container cable_car subway aircraft wheelchair scooter drone" oneway="0"/>

    <edge id=":1208279780_0" function="internal">
        <lane id=":1208279780_0_0" index="0" disallow="pedestrian bicycle tram rail_urban rail rail_electric rail_fast ship container cable_car subway aircraft wheelchair scooter drone" speed="16.67" length="14.39" shape="1659.01,330.89 1657.34,316.58"/>
        <lane id=":1208279780_0_1" index="1" disallow="pedestrian bicycle tram rail_urban rail rail_electric rail_fast ship container cable_car subway aircraft wheelchair scooter drone" speed="16.67" length="14.39" shape="1662.19,330.50 1660.52,316.22"/>
    </edge>
    <edge id=":1208279780_2" function="internal">
        <lane id=":1208279780_2_0" index="0" disallow="pedestrian bicycle tram rail_urban rail rail_electric rail_fast ship container cable_car subway aircraft wheelchair scooter drone" speed="6.40" length="9.04" shape="1652.31,322.59 1654.75,322.08 1656.40,320.91 1657.27,319.08 1657.34,316.58"/>
        <lane id=":1208279780_2_1" index="1" disallow="pedestrian bicycle tram rail_urban rail rail_electric rail_fast ship container cable_car subway aircraft wheelchair scooter drone" speed="7.91" length="14.38" shape="1652.51,325.78 1656.40,324.97 1659.03,323.11 1660.40,320.19 1660.52,316.22"/>
    </edge>
    <edge id=":1208279782_0" function="internal">
        <lane id=":1208279782_0_0" index="0" disallow="pedestrian bicycle tram rail_urban rail rail_electric rail_fast ship container cable_car subway aircraft wheelchair scooter drone" speed="8.56" length="10.32" shape="1705.25,496.90 1702.77,499.45 1701.12,501.74 1700.31,503.76 1700.33,505.52"/>
        <lane id=":1208279782_0_1" index="1" disallow="pedestrian bicycle tram rail_urban rail rail_electric rail_fast ship container cable_car subway aircraft wheelchair scooter drone" speed="9.81" length="13.77" shape="1703.07,494.55 1700.01,497.79 1698.01,500.84 1697.09,503.69 1697.24,506.35"/>
    </edge>
    <edge id=":1208279782_2" function="internal">
        <lane id=":1208279782_2_0" index="0" disallow="pedestrian bicycle tram rail_urban rail rail_electric rail_fast ship container cable_car subway aircraft wheelchair scooter drone" speed="16.67" length="13.19" shape="1698.39,492.77 1698.72,496.60 1698.97,499.22 1699.41,501.81 1700.33,505.52"/>
        <lane id=":1208279782_2_1" index="1" disallow="pedestrian bicycle tram rail_urban rail rail_electric rail_fast ship container cable_car subway aircraft wheelchair scooter drone" speed="16.67" length="13.19" shape="1695.20,493.09 1695.55,497.06 1695.82,499.79 1696.28,502.48 1697.24,506.35"/>
    </edge>
    <edge id=":12190738748_0" function="internal">
        <lane id=":12190738748_0_0" index="0" disallow="tram rail_urban rail rail_electric rail_fast ship container cable_car subway aircraft wheelchair scooter drone" speed="13.89" length="0.27" shape="2321.68,344.95 2321.56,344.71"/>
    </edge>
    <edge id=":12602360149_0" function="internal">
        <lane id=":12602360149_0_0" index="0" allow="pedestrian delivery bicycle" speed="4.22" length="3.53" shape="1987.75,237.61 1986.90,236.49 1986.18,235.79 1985.59,235.51 1985.15,235.65"/>
    </edge>
    <edge id=":12602360149_1" function="internal">
        <lane id=":12602360149_1_0" index="0" allow="pedestrian delivery bicycle" speed="3.68" length="4.67" shape="1987.75,237.61 1987.62,236.17 1987.99,235.36 1988.87,235.17 1990.24,235.60"/>
    </edge>
    <edge id=":12602360149_2" function="internal">
        <lane id=":12602360149_2_0" index="0" allow="pedestrian delivery bicycle" speed="5.34" length="5.30" shape="1990.25,230.85 1989.45,231.94 1989.18,233.10 1989.45,234.32 1990.24,235.60"/>
    </edge>
    <edge id=":12602360149_3" function="internal">
        <lane id=":12602360149_3_0" index="0" disallow="tram rail_urban rail rail_electric rail_fast ship container cable_car subway aircraft wheelchair scooter drone" speed="13.89" length="7.01" shape="1990.25,230.85 1985.15,235.65"/>
        <lane id=":12602360149_3_1" index="1" disallow="tram rail_urban rail rail_electric rail_fast ship container cable_car subway aircraft wheelchair scooter drone" speed="13.89" length="7.01" shape="1988.09,228.50 1982.97,233.30"/>
    </edge>
    <edge id=":12602360164_0" function="internal">
        <lane id=":12602360164_0_0" index="0" allow="pedestrian delivery bicycle" speed="3.65" length="4.67" shape="2105.96,363.50 2107.35,363.92 2107.96,364.56 2107.81,365.45 2106.90,366.56"/>
    </edge>
    <edge id=":12602360175_0" function="internal">
        <lane id=":12602360175_0_0" index="0" allow="pedestrian delivery bicycle" speed="5.56" length="9.93" shape="2074.42,318.73 2071.58,319.53 2069.63,320.02 2067.65,320.43 2064.75,320.98"/>
    </edge>
    <edge id=":12602360175_1" function="internal">
        <lane id=":12602360175_1_0" index="0" allow="pedestrian delivery bicycle" speed="5.56" length="10.51" shape="2074.42,318.73 2071.80,319.04 2069.57,318.36 2067.73,316.68 2066.28,314.00"/>
    </edge>
    <edge id=":12602360175_2" function="internal">
        <lane id=":12602360175_2_0" index="0" allow="pedestrian delivery bicycle" speed="3.65" length="4.67" shape="2074.42,318.73 2073.04,318.29 2072.44,317.63 2072.60,316.76 2073.53,315.65"/>
    </edge>
    <edge id=":12602360175_3" function="internal">
        <lane id=":12602360175_3_0" index="0" allow="pedestrian delivery bicycle" speed="5.50" length="5.71" shape="2069.25,312.82 2070.06,314.37 2071.04,315.35 2072.20,315.78 2073.53,315.65"/>
    </edge>
    <edge id=":12602360175_4" function="internal">
        <lane id=":12602360175_4_0" index="0" allow="pedestrian delivery bicycle" speed="5.56" length="11.15" shape="2069.25,312.82 2069.98,315.88 2069.47,318.26 2067.73,319.96 2064.75,320.98"/>
    </edge>
    <edge id=":12602360175_5" function="internal">
        <lane id=":12602360175_5_0" index="0" allow="pedestrian delivery bicycle" speed="3.65" length="4.67" shape="2069.25,312.82 2068.95,314.23 2068.35,314.90 2067.46,314.82 2066.28,314.00"/>
    </edge>
    <edge id=":12602360175_6" function="internal">
        <lane id=":12602360175_6_0" index="0" allow="pedestrian delivery bicycle" speed="4.86" length="5.24" shape="2064.16,317.83 2065.56,317.36 2066.38,316.56 2066.62,315.44 2066.28,314.00"/>
    </edge>
    <edge id=":12602360175_7" function="internal">
        <lane id=":12602360175_7_0" index="0" allow="pedestrian delivery bicycle" speed="5.56" length="9.63" shape="2064.16,317.83 2066.97,317.30 2068.89,316.91 2070.78,316.43 2073.53,315.65"/>
    </edge>
    <edge id=":12602360175_8" function="internal">
        <lane id=":12602360175_8_0" index="0" allow="pedestrian delivery bicycle" speed="3.65" length="4.67" shape="2064.16,317.83 2065.49,318.40 2066.03,319.11 2065.79,319.97 2064.75,320.98"/>
    </edge>
    <edge id=":12602360183_0" function="internal">
        <lane id=":12602360183_0_0" index="0" allow="pedestrian delivery bicycle" speed="5.56" length="6.59" shape="2042.17,280.12 2040.96,278.32 2039.77,277.02 2038.58,276.21 2037.40,275.89"/>
    </edge>
    <edge id=":12602360183_1" function="internal">
        <lane id=":12602360183_1_0" index="0" allow="pedestrian delivery bicycle" speed="5.56" length="11.47" shape="2042.17,280.12 2040.92,277.10 2041.09,274.63 2042.65,272.72 2045.62,271.36"/>
    </edge>
    <edge id=":12602360183_2" function="internal">
        <lane id=":12602360183_2_0" index="0" allow="pedestrian delivery bicycle" speed="3.65" length="4.67" shape="2042.17,280.12 2042.25,278.68 2042.73,277.93 2043.62,277.87 2044.92,278.49"/>
    </edge>
    <edge id=":12602360183_3" function="internal">
        <lane id=":12602360183_3_0" index="0" allow="pedestrian delivery bicycle" speed="4.82" length="5.32" shape="2046.53,274.43 2045.15,275.06 2044.42,275.95 2044.35,277.09 2044.92,278.49"/>
    </edge>
    <edge id=":12602360183_4" function="internal">
        <lane id=":12602360183_4_0" index="0" allow="pedestrian delivery bicycle" speed="5.56" length="9.32" shape="2046.53,274.43 2043.88,275.25 2042.03,275.75 2040.15,275.96 2037.40,275.89"/>
    </edge>
    <edge id=":12602360183_5" function="internal">
        <lane id=":12602360183_5_0" index="0" allow="pedestrian delivery bicycle" speed="3.65" length="4.67" shape="2046.53,274.43 2045.15,274.00 2044.54,273.35 2044.70,272.47 2045.62,271.36"/>
    </edge>
    <edge id=":12602360183_6" function="internal">
        <lane id=":12602360183_6_0" index="0" allow="pedestrian delivery bicycle" speed="5.56" length="8.22" shape="2037.59,272.70 2040.01,272.75 2041.66,272.55 2043.29,272.09 2045.62,271.36"/>
    </edge>
    <edge id=":12602360183_7" function="internal">
        <lane id=":12602360183_7_0" index="0" allow="pedestrian delivery bicycle" speed="5.56" length="9.71" shape="2037.59,272.70 2039.57,273.15 2041.45,274.26 2043.24,276.05 2044.92,278.49"/>
    </edge>
    <edge id=":12602360183_8" function="internal">
        <lane id=":12602360183_8_0" index="0" allow="pedestrian delivery bicycle" speed="3.65" length="4.67" shape="2037.59,272.70 2038.74,273.57 2039.09,274.39 2038.65,275.16 2037.40,275.89"/>
    </edge>
    <edge id=":12602360185_0" function="internal">
        <lane id=":12602360185_0_0" index="0" allow="pedestrian delivery bicycle" speed="4.99" length="5.06" shape="2063.16,321.13 2061.77,321.22 2060.76,321.74 2060.14,322.69 2059.90,324.07"/>
    </edge>
    <edge id=":12602360185_1" function="internal">
        <lane id=":12602360185_1_0" index="0" allow="pedestrian delivery bicycle" speed="5.56" length="9.37" shape="2063.16,321.13 2060.49,320.67 2058.36,319.72 2056.77,318.28 2055.72,316.36"/>
    </edge>
    <edge id=":12602360185_2" function="internal">
        <lane id=":12602360185_2_0" index="0" allow="pedestrian delivery bicycle" speed="3.65" length="4.67" shape="2063.16,321.13 2062.02,320.24 2061.68,319.41 2062.14,318.65 2063.40,317.94"/>
    </edge>
    <edge id=":12602360185_3" function="internal">
        <lane id=":12602360185_3_0" index="0" allow="pedestrian delivery bicycle" speed="5.56" length="5.69" shape="2058.73,315.27 2059.34,316.33 2060.33,317.13 2061.68,317.66 2063.40,317.94"/>
    </edge>
    <edge id=":12602360185_4" function="internal">
        <lane id=":12602360185_4_0" index="0" allow="pedestrian delivery bicycle" speed="5.56" length="8.97" shape="2058.73,315.27 2059.57,317.78 2059.93,319.57 2059.98,321.41 2059.90,324.07"/>
    </edge>
    <edge id=":12602360185_5" function="internal">
        <lane id=":12602360185_5_0" index="0" allow="pedestrian delivery bicycle" speed="3.65" length="4.67" shape="2058.73,315.27 2058.38,316.67 2057.77,317.32 2056.88,317.22 2055.72,316.36"/>
    </edge>
    <edge id=":12602360185_6" function="internal">
        <lane id=":12602360185_6_0" index="0" allow="pedestrian delivery bicycle" speed="5.56" length="7.76" shape="2056.70,323.98 2056.78,321.67 2056.74,320.08 2056.44,318.53 2055.72,316.36"/>
    </edge>
    <edge id=":12602360185_7" function="internal">
        <lane id=":12602360185_7_0" index="0" allow="pedestrian delivery bicycle" speed="5.56" length="10.39" shape="2056.70,323.98 2057.19,321.15 2058.47,319.20 2060.54,318.13 2063.40,317.94"/>
    </edge>
    <edge id=":12602360185_8" function="internal">
        <lane id=":12602360185_8_0" index="0" allow="pedestrian delivery bicycle" speed="3.65" length="4.67" shape="2056.70,323.98 2057.54,322.80 2058.35,322.42 2059.14,322.84 2059.90,324.07"/>
    </edge>
    <edge id=":12602360197_0" function="internal">
        <lane id=":12602360197_0_0" index="0" allow="pedestrian delivery bicycle" speed="6.40" length="6.56" shape="2132.75,266.24 2132.05,265.16 2130.86,264.41 2129.20,263.99 2127.05,263.90"/>
    </edge>
    <edge id=":12602360197_1" function="internal">
        <lane id=":12602360197_1_0" index="0" disallow="tram rail_urban rail rail_electric rail_fast ship container cable_car subway aircraft wheelchair scooter drone" speed="13.89" length="9.77" shape="2132.75,266.24 2129.37,257.09"/>
        <lane id=":12602360197_1_1" index="1" disallow="tram rail_urban rail rail_electric rail_fast ship container cable_car subway aircraft wheelchair scooter drone" speed="13.89" length="9.77" shape="2135.76,265.14 2132.37,255.97"/>
    </edge>
    <edge id=":12602360197_3" function="internal">
        <lane id=":12602360197_3_0" index="0" allow="pedestrian delivery bicycle" speed="4.77" length="5.44" shape="2126.94,260.70 2128.49,260.43 2129.41,259.74 2129.70,258.62 2129.37,257.09"/>
    </edge>
    <edge id=":12602360197_4" function="internal">
        <lane id=":12602360197_4_0" index="0" allow="pedestrian delivery bicycle" speed="3.65" length="4.67" shape="2126.94,260.70 2128.17,261.46 2128.60,262.25 2128.22,263.06 2127.05,263.90"/>
    </edge>
    <edge id=":12643309123_0" function="internal">
        <lane id=":12643309123_0_0" index="0" allow="pedestrian delivery bicycle" speed="5.56" length="0.30" shape="1196.18,717.73 1195.88,717.77"/>
    </edge>
    <edge id=":12643309123_1" function="internal">
        <lane id=":12643309123_1_0" index="0" allow="pedestrian delivery bicycle" speed="5.56" length="0.30" shape="1195.38,714.61 1195.68,714.57"/>
    </edge>
    <edge id=":1504321926_0" function="internal">
        <lane id=":1504321926_0_0" index="0" disallow="pedestrian bicycle tram rail_urban rail rail_electric rail_fast ship container cable_car subway aircraft wheelchair scooter drone" speed="16.67" length="12.90" shape="1698.16,720.04 1696.69,707.23"/>
        <lane id=":1504321926_0_1" index="1" disallow="pedestrian bicycle tram rail_urban rail rail_electric rail_fast ship container cable_car subway aircraft wheelchair scooter drone" speed="16.67" length="12.90" shape="1701.34,719.68 1699.87,706.87"/>
        <lane id=":1504321926_0_2" index="2" disallow="pedestrian bicycle tram rail_urban rail rail_electric rail_fast ship container cable_car subway aircraft wheelchair scooter drone" speed="16.67" length="12.90" shape="1704.52,719.32 1703.05,706.50"/>
    </edge>
    <edge id=":1504321926_3" function="internal">
        <lane id=":1504321926_3_0" index="0" disallow="pedestrian bicycle tram rail_urban rail rail_electric rail_fast ship container cable_car subway aircraft wheelchair scooter drone" speed="8.83" length="14.50" shape="1710.70,715.91 1706.34,715.24 1703.07,713.51 1700.92,710.72 1699.87,706.87"/>
        <lane id=":1504321926_3_1" index="1" disallow="pedestrian bicycle tram rail_urban rail rail_electric rail_fast ship container cable_car subway aircraft wheelchair scooter drone" speed="8.21" length="14.50" shape="1710.70,715.91 1707.75,715.25 1705.48,713.47 1703.92,710.55 1703.05,706.50"/>
    </edge>
    <edge id=":2057209415_0" function="internal">
        <lane id=":2057209415_0_0" index="0" disallow="tram rail_urban rail rail_electric rail_fast ship container cable_car subway aircraft wheelchair scooter drone" speed="3.65" length="4.67" shape="1598.05,1625.32 1597.39,1626.60 1596.64,1627.09 1595.80,1626.78 1594.87,1625.68"/>
    </edge>
    <edge id=":2057735343_0" function="internal">
        <lane id=":2057735343_0_0" index="0" disallow="tram rail_urban rail rail_electric rail_fast ship container cable_car subway aircraft wheelchair scooter drone" speed="10.39" length="7.99" shape="2227.49,527.02 2226.47,525.00 2225.29,523.92 2223.74,523.15 2221.61,522.06"/>
    </edge>
    <edge id=":2057735343_1" function="internal">
        <lane id=":2057735343_1_0" index="0" disallow="tram rail_urban rail rail_electric rail_fast ship container cable_car subway aircraft wheelchair scooter drone" speed="13.89" length="8.05" shape="2227.49,527.02 2224.69,519.48"/>
        <lane id=":2057735343_1_1" index="1" disallow="tram rail_urban rail rail_electric rail_fast ship container cable_car subway aircraft wheelchair scooter drone" speed="13.89" length="8.05" shape="2230.49,525.90 2227.69,518.36"/>
    </edge>
    <edge id=":2057735355_0" function="internal">
        <lane id=":2057735355_0_0" index="0" disallow="tram rail_urban rail rail_electric rail_fast ship container cable_car subway aircraft wheelchair scooter drone" speed="6.69" length="9.27" shape="2205.66,413.06 2203.43,414.37 2202.11,416.05 2201.69,418.09 2202.19,420.51"/>
    </edge>
    <edge id=":2057735355_1" function="internal">
        <lane id=":2057735355_1_0" index="0" disallow="tram rail_urban rail rail_electric rail_fast ship container cable_car subway aircraft wheelchair scooter drone" speed="3.65" length="4.67" shape="2205.66,413.06 2204.25,412.79 2203.57,412.20 2203.63,411.31 2204.42,410.11"/>
    </edge>
    <edge id=":2057735355_2" function="internal">
        <lane id=":2057735355_2_0" index="0" disallow="tram rail_urban rail rail_electric rail_fast ship container cable_car subway aircraft wheelchair scooter drone" speed="6.41" length="9.04" shape="2197.24,406.97 2198.42,409.17 2200.01,410.42 2202.01,410.74 2204.42,410.11"/>
    </edge>
    <edge id=":2057735355_3" function="internal">
        <lane id=":2057735355_3_0" index="0" disallow="tram rail_urban rail rail_electric rail_fast ship container cable_car subway aircraft wheelchair scooter drone" speed="13.89" length="14.41" shape="2197.24,406.97 2202.19,420.51"/>
        <lane id=":2057735355_3_1" index="1" disallow="tram rail_urban rail rail_electric rail_fast ship container cable_car subway aircraft wheelchair scooter drone" speed="13.89" length="14.41" shape="2194.24,408.07 2199.18,421.61"/>
    </edge>
    <edge id=":2057735356_0" function="internal">
        <lane id=":2057735356_0_0" index="0" disallow="tram rail_urban rail rail_electric rail_fast ship container cable_car subway aircraft wheelchair scooter drone" speed="13.89" length="17.68" shape="2040.23,406.74 2025.33,397.25"/>
    </edge>
    <edge id=":2057735356_1" function="internal">
        <lane id=":2057735356_1_0" index="0" disallow="tram rail_urban rail rail_electric rail_fast ship container cable_car subway aircraft wheelchair scooter drone" speed="6.55" length="15.10" shape="2033.06,392.87 2033.81,397.42 2032.77,399.66 2029.94,399.61 2025.33,397.25"/>
    </edge>
    <edge id=":2057735359_0" function="internal">
        <lane id=":2057735359_0_0" index="0" disallow="tram rail_urban rail rail_electric rail_fast ship container cable_car subway aircraft wheelchair scooter drone" speed="6.54" length="8.92" shape="2307.66,359.23 2309.27,357.50 2309.94,355.62 2309.68,353.59 2308.47,351.39"/>
    </edge>
    <edge id=":2057735359_1" function="internal">
        <lane id=":2057735359_1_0" index="0" disallow="tram rail_urban rail rail_electric rail_fast ship container cable_car subway aircraft wheelchair scooter drone" speed="13.89" length="12.84" shape="2307.66,359.23 2310.59,357.67 2313.56,357.10 2316.62,356.67 2319.85,355.58"/>
    </edge>
    <edge id=":2057735359_2" function="internal">
        <lane id=":2057735359_2_0" index="0" disallow="tram rail_urban rail rail_electric rail_fast ship container cable_car subway aircraft wheelchair scooter drone" speed="3.65" length="4.67" shape="2307.66,359.23 2309.09,359.11 2309.90,359.49 2310.09,360.37 2309.64,361.74"/>
    </edge>
    <edge id=":2057735371_0" function="internal">
        <lane id=":2057735371_0_0" index="0" disallow="tram rail_urban rail rail_electric rail_fast ship container cable_car subway aircraft wheelchair scooter drone" speed="7.12" length="7.32" shape="1985.00,235.79 1984.73,236.54 1984.82,237.98 1985.27,240.10 1986.09,242.90"/>
        <lane id=":2057735371_0_1" index="1" disallow="tram rail_urban rail rail_electric rail_fast ship container cable_car subway aircraft wheelchair scooter drone" speed="7.75" length="8.81" shape="1985.00,235.79 1983.57,237.50 1982.76,239.42 1982.58,241.54 1983.04,243.87"/>
    </edge>
    <edge id=":2057735371_2" function="internal">
        <lane id=":2057735371_2_0" index="0" disallow="tram rail_urban rail rail_electric rail_fast ship container cable_car subway aircraft wheelchair scooter drone" speed="13.89" length="9.84" shape="1985.00,235.79 1977.80,242.49"/>
        <lane id=":2057735371_2_1" index="1" disallow="tram rail_urban rail rail_electric rail_fast ship container cable_car subway aircraft wheelchair scooter drone" speed="13.89" length="9.84" shape="1982.83,233.44 1975.61,240.15"/>
    </edge>
    <edge id=":2077976055_0" function="internal">
        <lane id=":2077976055_0_0" index="0" disallow="tram rail_urban rail rail_electric rail_fast ship container cable_car subway aircraft wheelchair scooter drone" speed="3.65" length="4.67" shape="1137.57,999.40 1136.30,998.73 1135.82,997.97 1136.14,997.13 1137.25,996.22"/>
    </edge>
    <edge id=":2078099460_0" function="internal">
        <lane id=":2078099460_0_0" index="0" disallow="tram rail_urban rail rail_electric rail_fast ship container cable_car subway aircraft wheelchair scooter drone" speed="6.54" length="9.00" shape="2126.65,788.70 2125.99,786.33 2124.74,784.71 2122.88,783.87 2120.43,783.79"/>
    </edge>
    <edge id=":2078099460_1" function="internal">
        <lane id=":2078099460_1_0" index="0" disallow="tram rail_urban rail rail_electric rail_fast ship container cable_car subway aircraft wheelchair scooter drone" speed="3.65" length="4.67" shape="2126.65,788.70 2127.29,787.41 2128.03,786.91 2128.87,787.20 2129.82,788.29"/>
    </edge>
    <edge id=":2078099460_2" function="internal">
        <lane id=":2078099460_2_0" index="0" disallow="tram rail_urban rail rail_electric rail_fast ship container cable_car subway aircraft wheelchair scooter drone" speed="6.51" length="8.97" shape="2134.60,782.01 2132.24,782.70 2130.66,783.97 2129.85,785.83 2129.82,788.29"/>
    </edge>
    <edge id=":2078099460_3" function="internal">
        <lane id=":2078099460_3_0" index="0" disallow="tram rail_urban rail rail_electric rail_fast ship container cable_car subway aircraft wheelchair scooter drone" speed="13.89" length="14.27" shape="2134.60,782.01 2120.43,783.79"/>
    </edge>
    <edge id=":2078099460_4" function="internal">
        <lane id=":2078099460_4_0" index="0" disallow="tram rail_urban rail rail_electric rail_fast ship container cable_car subway aircraft wheelchair scooter drone" speed="13.89" length="11.29" shape="2126.73,777.45 2127.42,780.54 2128.30,782.87 2129.17,785.20 2129.82,788.29"/>
    </edge>
    <edge id=":2078099460_5" function="internal">
        <lane id=":2078099460_5_0" index="0" disallow="tram rail_urban rail rail_electric rail_fast ship container cable_car subway aircraft wheelchair scooter drone" speed="6.81" length="10.21" shape="2126.73,777.45 2126.64,779.93 2125.55,781.81 2123.48,783.10 2120.43,783.79"/>
    </edge>
    <edge id=":2078099461_0" function="internal">
        <lane id=":2078099461_0_0" index="0" disallow="tram rail_urban rail rail_electric rail_fast ship container cable_car subway aircraft wheelchair scooter drone" speed="6.16" length="9.05" shape="2206.15,775.23 2205.45,772.78 2204.15,771.28 2202.24,770.74 2199.73,771.16"/>
    </edge>
    <edge id=":2078099461_1" function="internal">
        <lane id=":2078099461_1_0" index="0" disallow="tram rail_urban rail rail_electric rail_fast ship container cable_car subway aircraft wheelchair scooter drone" speed="13.89" length="11.78" shape="2206.15,775.23 2204.44,763.57"/>
    </edge>
    <edge id=":2078099461_2" function="internal">
        <lane id=":2078099461_2_0" index="0" disallow="tram rail_urban rail rail_electric rail_fast ship container cable_car subway aircraft wheelchair scooter drone" speed="13.89" length="11.78" shape="2210.95,767.56 2199.73,771.16"/>
    </edge>
    <edge id=":2078099461_3" function="internal">
        <lane id=":2078099461_3_0" index="0" disallow="tram rail_urban rail rail_electric rail_fast ship container cable_car subway aircraft wheelchair scooter drone" speed="6.19" length="9.05" shape="2210.95,767.56 2208.45,767.99 2206.53,767.47 2205.19,765.99 2204.44,763.57"/>
    </edge>
    <edge id=":2078099462_0" function="internal">
        <lane id=":2078099462_0_0" index="0" disallow="tram rail_urban rail rail_electric rail_fast ship container cable_car subway aircraft wheelchair scooter drone" speed="6.45" length="9.03" shape="1907.91,813.58 1907.35,811.16 1906.15,809.52 1904.31,808.66 1901.82,808.59"/>
    </edge>
    <edge id=":2078099462_1" function="internal">
        <lane id=":2078099462_1_0" index="0" disallow="tram rail_urban rail rail_electric rail_fast ship container cable_car subway aircraft wheelchair scooter drone" speed="13.89" length="11.28" shape="1907.91,813.58 1906.67,802.37"/>
    </edge>
    <edge id=":2078099462_2" function="internal">
        <lane id=":2078099462_2_0" index="0" disallow="tram rail_urban rail rail_electric rail_fast ship container cable_car subway aircraft wheelchair scooter drone" speed="13.89" length="11.21" shape="1912.96,807.36 1901.82,808.59"/>
    </edge>
    <edge id=":2078099462_3" function="internal">
        <lane id=":2078099462_3_0" index="0" disallow="tram rail_urban rail rail_electric rail_fast ship container cable_car subway aircraft wheelchair scooter drone" speed="6.59" length="9.10" shape="1912.96,807.36 1910.49,807.27 1908.62,806.41 1907.35,804.78 1906.67,802.37"/>
    </edge>
    <edge id=":2078099465_0" function="internal">
        <lane id=":2078099465_0_0" index="0" disallow="tram rail_urban rail rail_electric rail_fast ship container cable_car subway aircraft wheelchair scooter drone" speed="13.89" length="8.29" shape="2285.71,650.60 2286.54,652.97 2287.00,654.63 2287.35,656.33 2287.90,658.79"/>
        <lane id=":2078099465_0_1" index="1" disallow="tram rail_urban rail rail_electric rail_fast ship container cable_car subway aircraft wheelchair scooter drone" speed="13.89" length="8.29" shape="2282.72,651.72 2283.51,653.98 2283.93,655.57 2284.27,657.18 2284.79,659.53"/>
    </edge>
    <edge id=":2078099465_2" function="internal">
        <lane id=":2078099465_2_0" index="0" disallow="tram rail_urban rail rail_electric rail_fast ship container cable_car subway aircraft wheelchair scooter drone" speed="5.48" length="7.37" shape="2282.72,651.72 2283.33,654.07 2283.17,655.79 2282.24,656.90 2280.54,657.39"/>
    </edge>
    <edge id=":2078099469_0" function="internal">
        <lane id=":2078099469_0_0" index="0" disallow="tram rail_urban rail rail_electric rail_fast ship container cable_car subway aircraft wheelchair scooter drone" speed="6.54" length="9.00" shape="2053.90,796.67 2053.21,794.30 2051.93,792.70 2050.07,791.88 2047.62,791.84"/>
    </edge>
    <edge id=":2078099469_1" function="internal">