<?xml version="1.0" encoding="UTF-8"?>

<routes xmlns:xsi="http://www.w3.org/2001/XMLSchema-instance" xsi:noNamespaceSchemaLocation="http://sumo.dlr.de/xsd/routes_file.xsd">
    <vType id="authority" vClass="authority" guiShape="police"/>
    <vType id="emergency" vClass="emergency" guiShape="emergency"/>
    <vType id="firebrigade" vClass="emergency" guiShape="firebrigade"/>
    <vType id="DEFAULT_VEHTYPE" vClass="passenger" guiShape="passenger"/>
    
    <trip id="t_0" type="emergency" depart="0.00" from="302666739#1" to="299749397#2" via="302666739#3"/>
    <trip id="t_2" type="emergency" depart="0.00" from="671109817#10" to="197678461#3" via="651362344 197678461#1"/>
    <trip id="t_3" type="emergency" depart="0.00" from="-197678461#3" to="368669404#0" via="302666743#1"/>
    <trip id="t_4" type="emergency" depart="0.00" from="-23730370" to="651370867" via="302666743#3"/>
    <trip id="t_9" type="emergency" depart="0.00" from="223333658#0" to="223335370#3" via="302666738#1 302666743#1 223335370#0 223335370#2"/>
    
    <trip id="t_5" type="authority" depart="0.00" from="302666738#2" to="223333721#0" via="302666743#1 685997310#0"/>
    <trip id="t_6" type="authority" depart="0.00" from="302666738#3" to="302666743#6"/>
    <trip id="t_7" type="authority" depart="0.00" from="368669404#1" to="223333697#0" via="223335370#1 302666739#5 197678461#0 197678461#1"/>
    <trip id="t_16" type="authority" depart="0.00" from="302666738#2" to="223333721#0" via="302666743#1 685997310#0"/>

    <trip id="t_8" type="firebrigade" depart="0.00" from="104749654#5" to="302666743#5" via="302666743#1"/>
    <trip id="t_10" type="firebrigade" depart="0.00" from="-223335370#2" to="1142249270#4" via="302666739#5"/>
    <trip id="t_17" type="firebrigade" depart="0.00" from="-223335370#2" to="1142249270#4" via="302666739#5"/>
    
    <trip id="t_1" type="DEFAULT_VEHTYPE" depart="0.00" from="302666738#0" to="-1247522236" via="302666743#6"/>
    <trip id="t_11" type="DEFAULT_VEHTYPE" depart="0.00" from="302666739#0" to="197678461#2" via="8095485#0"/>
    <trip id="t_12" type="DEFAULT_VEHTYPE" depart="0.00" from="-259085025#0" to="223333681#1" via="223333702#0 302666739#5 299749397#0"/>
    <trip id="t_13" type="DEFAULT_VEHTYPE" depart="0.00" from="299749392#0" to="197598658#2"/>
    <trip id="t_14" type="DEFAULT_VEHTYPE" depart="0.00" from="302666738#2" to="260865763#3"/>
    <trip id="t_15" type="DEFAULT_VEHTYPE" depart="0.00" from="-197678461#2" to="1357811912" via="302666739#5 223333681#0"/>
    <trip id="t_18" type="DEFAULT_VEHTYPE" depart="0.00" from="302666739#2" to="299749397#0"/>
    <trip id="t_19" type="DEFAULT_VEHTYPE" depart="0.00" from="302666739#0" to="299749397#3" via="302666739#7"/>
    <trip id="t_20" type="DEFAULT_VEHTYPE" depart="0.00" from="671109817#8" to="197678461#7"/>
    <trip id="t_21" type="DEFAULT_VEHTYPE" depart="0.00" from="671109817#7" to="1289248800#0" via="299749397#0"/>
    <trip id="t_22" type="DEFAULT_VEHTYPE" depart="0.00" from="302666738#0" to="651370867"/>
    <trip id="t_23" type="DEFAULT_VEHTYPE" depart="0.00" from="302666738#2" to="260865763#3"/>
    <trip id="t_24" type="DEFAULT_VEHTYPE" depart="0.00" from="-197678461#2" to="1357811912" via="302666739#5 223333681#0"/>
    <trip id="t_25" type="DEFAULT_VEHTYPE" depart="0.00" from="-1317177603#1" to="1247522237" via="104749654#5 302666743#3"/>
    <trip id="t_26" type="DEFAULT_VEHTYPE" depart="0.00" from="302666739#0" to="197678461#2" via="8095485#0"/>
    <trip id="t_27" type="DEFAULT_VEHTYPE" depart="0.00" from="302666739#0" to="223333697#2" via="302666743#0 223333649"/>
    <trip id="t_28" type="DEFAULT_VEHTYPE" depart="0.00" from="299749392#0" to="197598658#2"/>
    <trip id="t_29" type="DEFAULT_VEHTYPE" depart="0.00" from="302666738#0" to="1353709886" via="685997309"/>
    <trip id="t_30" type="DEFAULT_VEHTYPE" depart="0.00" from="298699445#0" to="1357811912" via="302666739#7"/>
    <trip id="t_31" type="DEFAULT_VEHTYPE" depart="0.00" from="302666739#1" to="299749397#2" via="302666739#3"/>
    <trip id="t_32" type="DEFAULT_VEHTYPE" depart="0.00" from="302666738#0" to="-1247522236" via="302666743#6"/>
    <trip id="t_33" type="DEFAULT_VEHTYPE" depart="0.00" from="-223335370#2" to="1142249270#4" via="302666739#5"/>
    <trip id="t_34" type="DEFAULT_VEHTYPE" depart="0.00" from="-259085025#0" to="223333681#1" via="223333702#0 302666739#5 299749397#0"/>
    <trip id="t_35" type="DEFAULT_VEHTYPE" depart="0.00" from="302666739#2" to="299749397#0"/>
    <trip id="t_36" type="DEFAULT_VEHTYPE" depart="0.00" from="302666739#0" to="299749397#3" via="302666739#7"/>
    <trip id="t_37" type="DEFAULT_VEHTYPE" depart="0.00" from="671109817#10" to="197678461#3" via="651362344 197678461#1"/>
    <trip id="t_38" type="DEFAULT_VEHTYPE" depart="0.00" from="671109817#8" to="197678461#7"/>
    <trip id="t_39" type="DEFAULT_VEHTYPE" depart="0.00" from="671109817#7" to="1289248800#0" via="299749397#0"/>
    <trip id="t_40" type="DEFAULT_VEHTYPE" depart="0.00" from="302666738#0" to="651370867"/>
    <trip id="t_41" type="DEFAULT_VEHTYPE" depart="0.00" from="302666738#2" to="260865763#3"/>
    <trip id="t_42" type="DEFAULT_VEHTYPE" depart="0.00" from="-197678461#2" to="1357811912" via="302666739#5 223333681#0"/>
    <trip id="t_43" type="DEFAULT_VEHTYPE" depart="0.00" from="-1317177603#1" to="1247522237" via="104749654#5 302666743#3"/>
    <trip id="t_44" type="DEFAULT_VEHTYPE" depart="0.00" from="302666739#0" to="197678461#2" via="8095485#0"/>
    <trip id="t_45" type="DEFAULT_VEHTYPE" depart="0.00" from="302666739#0" to="223333697#2" via="302666743#0 223333649"/>
    <trip id="t_46" type="DEFAULT_VEHTYPE" depart="0.00" from="299749392#0" to="197598658#2"/>
    <trip id="t_47" type="DEFAULT_VEHTYPE" depart="0.00" from="302666738#0" to="1353709886" via="685997309"/>
    <trip id="t_48" type="DEFAULT_VEHTYPE" depart="0.00" from="-197678461#3" to="368669404#0"/>
    <trip id="t_49" type="DEFAULT_VEHTYPE" depart="0.00" from="-197678461#2" to="1357811912" via="302666739#5 223333681#0"/>

</routes>