<?xml version="1.0" encoding="UTF-8"?>

<!-- generated on 2025-10-13 22:51:38 by Eclipse SUMO sumo Version 1.22.0
-->

<sumoConfiguration xmlns:xsi="http://www.w3.org/2001/XMLSchema-instance" xsi:noNamespaceSchemaLocation="http://sumo.dlr.de/xsd/sumoConfiguration.xsd">

    <input>
        <net-file value="Prox_Samur.net.xml"/>
		<route-files value="Prox_Samur.rou.xml"/>
    </input>

</sumoConfiguration>
