<?xml version="1.0" encoding="UTF-8"?>

<!-- generated on 2025-10-13 22:51:36 by Eclipse SUMO netedit Version 1.22.0
<neteditConfiguration xmlns:xsi="http://www.w3.org/2001/XMLSchema-instance" xsi:noNamespaceSchemaLocation="http://sumo.dlr.de/xsd/neteditConfiguration.xsd">

    <input>
        <sumocfg-file value="C:\Users\EDMILSON\Documents\Prox_Samur\Prox_Samur.sumocfg"/>
        <additional-files value=""/>
        <route-files value=""/>
        <sumo-net-file value="C:\Users\EDMILSON\Documents\Prox_Samur\Prox_Samur.net.xml"/>
    </input>

    <output>
        <output-file value="C:\Users\EDMILSON\Documents\Prox_Samur\Prox_Samur.net.xml"/>
    </output>

    <processing>
        <geometry.min-radius.fix.railways value="false"/>
        <geometry.max-grade.fix value="false"/>
        <offset.disable-normalization value="true"/>
        <lefthand value="0"/>
    </processing>

    <junctions>
        <no-turnarounds value="true"/>
        <junctions.corner-detail value="5"/>
        <junctions.limit-turn-speed value="5.50"/>
        <rectangular-lane-cut value="0"/>
    </junctions>

    <pedestrian>
        <walkingareas value="0"/>
    </pedestrian>

</neteditConfiguration>
-->

<net version="1.20" junctionCornerDetail="5" limitTurnSpeed="5.50" xmlns:xsi="http://www.w3.org/2001/XMLSchema-instance" xsi:noNamespaceSchemaLocation="http://sumo.dlr.de/xsd/net_file.xsd">

    <location netOffset="-300883.69,1645013.14" convBoundary="0.00,0.00,977.95,1686.43" origBoundary="-40.850740,-14.872170,-40.830920,-14.857003" projParameter="+proj=utm +zone=24 +ellps=WGS84 +datum=WGS84 +units=m +no_defs"/>

    <type id="highway.path" priority="1" numLanes="1" speed="5.56" allow="pedestrian bicycle" oneway="0" width="2.00"/>
    <type id="highway.primary" priority="12" numLanes="2" speed="27.78" disallow="tram rail_urban rail rail_electric rail_fast ship container cable_car subway aircraft wheelchair scooter drone" oneway="0"/>
    <type id="highway.primary_link" priority="7" numLanes="1" speed="22.22" disallow="tram rail_urban rail rail_electric rail_fast ship container cable_car subway aircraft wheelchair scooter drone" oneway="0"/>
    <type id="highway.residential" priority="3" numLanes="1" speed="13.89" disallow="tram rail_urban rail rail_electric rail_fast ship container cable_car subway aircraft wheelchair scooter drone" oneway="0"/>
    <type id="highway.service" priority="1" numLanes="1" speed="5.56" allow="pedestrian delivery bicycle" oneway="0"/>
    <type id="highway.tertiary" priority="10" numLanes="1" speed="22.22" disallow="tram rail_urban rail rail_electric rail_fast ship container cable_car subway aircraft wheelchair scooter drone" oneway="0"/>
    <type id="highway.trunk" priority="13" numLanes="2" speed="27.78" disallow="pedestrian bicycle tram rail_urban rail rail_electric rail_fast ship container cable_car subway aircraft wheelchair scooter drone" oneway="0"/>
    <type id="highway.trunk_link" priority="8" numLanes="1" speed="22.22" disallow="pedestrian bicycle tram rail_urban rail rail_electric rail_fast ship container cable_car subway aircraft wheelchair scooter drone" oneway="0"/>

    <edge id=":1189501562_0" function="internal">
        <lane id=":1189501562_0_0" index="0" disallow="tram rail_urban rail rail_electric rail_fast ship container cable_car subway aircraft wheelchair scooter drone" speed="27.78" length="17.73" shape="649.71,1015.60 649.32,1033.25"/>
        <lane id=":1189501562_0_1" index="1" disallow="tram rail_urban rail rail_electric rail_fast ship container cable_car subway aircraft wheelchair scooter drone" speed="27.78" length="17.73" shape="646.51,1015.52 646.12,1033.32"/>
    </edge>
    <edge id=":1189501562_2" function="internal">
        <lane id=":1189501562_2_0" index="0" disallow="tram rail_urban rail rail_electric rail_fast ship container cable_car subway aircraft wheelchair scooter drone" speed="27.32" length="17.85" shape="642.76,1016.26 645.33,1021.14 647.36,1024.46 648.73,1027.93 649.32,1033.25"/>
        <lane id=":1189501562_2_1" index="1" disallow="tram rail_urban rail rail_electric rail_fast ship container cable_car subway aircraft wheelchair scooter drone" speed="26.37" length="17.85" shape="639.84,1017.57 642.26,1022.11 644.21,1025.17 645.55,1028.37 646.12,1033.32"/>
    </edge>
    <edge id=":12555811882_0" function="internal">
        <lane id=":12555811882_0_0" index="0" disallow="tram rail_urban rail rail_electric rail_fast ship container cable_car subway aircraft wheelchair scooter drone" speed="8.69" length="7.23" shape="655.37,814.68 653.65,812.91 652.42,811.34 651.69,809.96 651.45,808.78"/>
    </edge>
    <edge id=":12555811882_1" function="internal">
        <lane id=":12555811882_1_0" index="0" disallow="tram rail_urban rail rail_electric rail_fast ship container cable_car subway aircraft wheelchair scooter drone" speed="27.78" length="7.36" shape="648.19,816.11 648.25,808.74"/>
        <lane id=":12555811882_1_1" index="1" disallow="tram rail_urban rail rail_electric rail_fast ship container cable_car subway aircraft wheelchair scooter drone" speed="27.78" length="7.36" shape="651.39,816.13 651.45,808.78"/>
    </edge>
    <edge id=":12555811887_0" function="internal">
        <lane id=":12555811887_0_0" index="0" disallow="tram rail_urban rail rail_electric rail_fast ship container cable_car subway aircraft wheelchair scooter drone" speed="27.78" length="7.46" shape="677.65,815.40 676.12,822.71"/>
        <lane id=":12555811887_0_1" index="1" disallow="tram rail_urban rail rail_electric rail_fast ship container cable_car subway aircraft wheelchair scooter drone" speed="27.78" length="7.46" shape="674.51,814.76 672.99,822.06"/>
    </edge>
    <edge id=":12555811887_2" function="internal">
        <lane id=":12555811887_2_0" index="0" disallow="tram rail_urban rail rail_electric rail_fast ship container cable_car subway aircraft wheelchair scooter drone" speed="6.83" length="7.00" shape="674.51,814.76 673.95,816.13 672.88,817.23 671.29,818.08 669.19,818.68"/>
    </edge>
    <edge id=":12602732112_0" function="internal">
        <lane id=":12602732112_0_0" index="0" allow="pedestrian delivery bicycle" speed="3.65" length="4.67" shape="297.52,1219.03 298.79,1219.72 299.25,1220.48 298.93,1221.31 297.80,1222.21"/>
    </edge>
    <edge id=":12602732113_0" function="internal">
        <lane id=":12602732113_0_0" index="0" disallow="tram rail_urban rail rail_electric rail_fast ship container cable_car subway aircraft wheelchair scooter drone" speed="13.89" length="9.41" shape="245.03,1231.01 244.09,1221.65"/>
    </edge>
    <edge id=":12602732113_1" function="internal">
        <lane id=":12602732113_1_0" index="0" allow="pedestrian delivery bicycle" speed="6.98" length="3.18" shape="245.03,1231.01 245.16,1228.30 245.36,1227.88"/>
    </edge>
    <edge id=":12602732113_7" function="internal">
        <lane id=":12602732113_7_0" index="0" allow="pedestrian delivery bicycle" speed="6.98" length="7.00" shape="245.36,1227.88 246.15,1226.23 248.01,1224.81 250.73,1224.03"/>
    </edge>
    <edge id=":12602732113_2" function="internal">
        <lane id=":12602732113_2_0" index="0" allow="pedestrian delivery bicycle" speed="5.19" length="5.18" shape="251.20,1227.19 249.78,1227.59 248.81,1228.31 248.29,1229.34 248.22,1230.69"/>
    </edge>
    <edge id=":12602732113_3" function="internal">
        <lane id=":12602732113_3_0" index="0" allow="pedestrian delivery bicycle" speed="6.83" length="10.38" shape="251.20,1227.19 248.33,1227.20 246.20,1226.28 244.78,1224.43 244.09,1221.65"/>
    </edge>
    <edge id=":12602732113_4" function="internal">
        <lane id=":12602732113_4_0" index="0" allow="pedestrian delivery bicycle" speed="3.65" length="4.67" shape="251.20,1227.19 249.89,1226.57 249.38,1225.84 249.66,1224.99 250.73,1224.03"/>
    </edge>
    <edge id=":12602732113_5" function="internal">
        <lane id=":12602732113_5_0" index="0" allow="pedestrian delivery bicycle" speed="4.99" length="5.05" shape="247.28,1221.33 247.61,1222.68 248.30,1223.58 249.34,1224.03 250.73,1224.03"/>
    </edge>
    <edge id=":12602732113_6" function="internal">
        <lane id=":12602732113_6_0" index="0" disallow="tram rail_urban rail rail_electric rail_fast ship container cable_car subway aircraft wheelchair scooter drone" speed="13.89" length="9.41" shape="247.28,1221.33 248.22,1230.69"/>
    </edge>
    <edge id=":12602732114_0" function="internal">
        <lane id=":12602732114_0_0" index="0" allow="pedestrian delivery bicycle" speed="5.56" length="9.27" shape="270.43,1224.61 261.22,1225.73"/>
    </edge>
    <edge id=":12602732114_1" function="internal">
        <lane id=":12602732114_1_0" index="0" allow="pedestrian delivery bicycle" speed="5.56" length="10.20" shape="270.43,1224.61 268.01,1224.42 265.97,1223.40 264.31,1221.53 263.03,1218.82"/>
    </edge>
    <edge id=":12602732114_2" function="internal">
        <lane id=":12602732114_2_0" index="0" allow="pedestrian delivery bicycle" speed="3.65" length="4.67" shape="270.43,1224.61 269.16,1223.92 268.69,1223.16 269.02,1222.33 270.15,1221.43"/>
    </edge>
    <edge id=":12602732114_3" function="internal">
        <lane id=":12602732114_3_0" index="0" allow="pedestrian delivery bicycle" speed="5.56" length="5.93" shape="266.06,1217.77 266.82,1219.46 267.76,1220.63 268.87,1221.29 270.15,1221.43"/>
    </edge>
    <edge id=":12602732114_4" function="internal">
        <lane id=":12602732114_4_0" index="0" allow="pedestrian delivery bicycle" speed="5.56" length="11.15" shape="266.06,1217.77 266.66,1220.86 266.05,1223.21 264.24,1224.84 261.22,1225.73"/>
    </edge>
    <edge id=":12602732114_5" function="internal">
        <lane id=":12602732114_5_0" index="0" allow="pedestrian delivery bicycle" speed="3.65" length="4.67" shape="266.06,1217.77 265.70,1219.17 265.07,1219.81 264.18,1219.69 263.03,1218.82"/>
    </edge>
    <edge id=":12602732114_6" function="internal">
        <lane id=":12602732114_6_0" index="0" allow="pedestrian delivery bicycle" speed="4.86" length="5.24" shape="260.76,1222.56 262.18,1222.14 263.03,1221.38 263.32,1220.27 263.03,1218.82"/>
    </edge>
    <edge id=":12602732114_7" function="internal">
        <lane id=":12602732114_7_0" index="0" allow="pedestrian delivery bicycle" speed="5.56" length="9.45" shape="260.76,1222.56 270.15,1221.43"/>
    </edge>
    <edge id=":12602732114_8" function="internal">
        <lane id=":12602732114_8_0" index="0" allow="pedestrian delivery bicycle" speed="3.65" length="4.67" shape="260.76,1222.56 262.07,1223.18 262.58,1223.91 262.30,1224.76 261.22,1225.73"/>
    </edge>
    <edge id=":12602732119_0" function="internal">
        <lane id=":12602732119_0_0" index="0" allow="pedestrian delivery bicycle" speed="5.05" length="5.01" shape="272.63,1125.10 272.27,1123.77 271.57,1122.87 270.54,1122.41 269.17,1122.38"/>
    </edge>
    <edge id=":12602732119_1" function="internal">
        <lane id=":12602732119_1_0" index="0" allow="pedestrian delivery bicycle" speed="6.86" length="10.18" shape="272.63,1125.10 272.68,1122.31 273.62,1120.21 275.43,1118.80 278.13,1118.08"/>
    </edge>
    <edge id=":12602732119_2" function="internal">
        <lane id=":12602732119_2_0" index="0" allow="pedestrian delivery bicycle" speed="3.65" length="4.67" shape="272.63,1125.10 273.27,1123.81 274.02,1123.32 274.86,1123.62 275.80,1124.71"/>
    </edge>
    <edge id=":12602732119_3" function="internal">
        <lane id=":12602732119_3_0" index="0" allow="pedestrian delivery bicycle" speed="5.04" length="5.00" shape="278.51,1121.26 277.18,1121.61 276.29,1122.31 275.83,1123.34 275.80,1124.71"/>
    </edge>
    <edge id=":12602732119_4" function="internal">
        <lane id=":12602732119_4_0" index="0" disallow="tram rail_urban rail rail_electric rail_fast ship container cable_car subway aircraft wheelchair scooter drone" speed="22.22" length="9.40" shape="278.51,1121.26 269.17,1122.38"/>
    </edge>
    <edge id=":12602732119_5" function="internal">
        <lane id=":12602732119_5_0" index="0" disallow="tram rail_urban rail rail_electric rail_fast ship container cable_car subway aircraft wheelchair scooter drone" speed="22.22" length="9.40" shape="268.79,1119.20 278.13,1118.08"/>
    </edge>
    <edge id=":12602732119_6" function="internal">
        <lane id=":12602732119_6_0" index="0" allow="pedestrian delivery bicycle" speed="6.87" length="3.26" shape="268.79,1119.20 271.57,1119.26 272.01,1119.46"/>
    </edge>
    <edge id=":12602732119_7" function="internal">
        <lane id=":12602732119_7_0" index="0" allow="pedestrian delivery bicycle" speed="6.87" length="6.90" shape="272.01,1119.46 273.67,1120.20 275.08,1122.02 275.80,1124.71"/>
    </edge>
    <edge id=":12602732120_0" function="internal">
        <lane id=":12602732120_0_0" index="0" allow="pedestrian delivery bicycle" speed="5.56" length="9.41" shape="280.70,1144.56 271.33,1145.35"/>
    </edge>
    <edge id=":12602732120_1" function="internal">
        <lane id=":12602732120_1_0" index="0" allow="pedestrian delivery bicycle" speed="5.56" length="10.28" shape="280.70,1144.56 277.88,1144.40 275.81,1143.37 274.49,1141.47 273.92,1138.70"/>
    </edge>
    <edge id=":12602732120_2" function="internal">
        <lane id=":12602732120_2_0" index="0" allow="pedestrian delivery bicycle" speed="3.65" length="4.67" shape="280.70,1144.56 279.44,1143.87 278.97,1143.10 279.31,1142.27 280.43,1141.38"/>
    </edge>
    <edge id=":12602732120_3" function="internal">
        <lane id=":12602732120_3_0" index="0" allow="pedestrian delivery bicycle" speed="5.02" length="5.03" shape="277.12,1138.51 277.40,1139.86 278.04,1140.79 279.05,1141.29 280.43,1141.38"/>
    </edge>
    <edge id=":12602732120_4" function="internal">
        <lane id=":12602732120_4_0" index="0" allow="pedestrian delivery bicycle" speed="5.56" length="10.17" shape="277.12,1138.51 276.90,1141.31 275.86,1143.38 274.01,1144.73 271.33,1145.35"/>
    </edge>
    <edge id=":12602732120_5" function="internal">
        <lane id=":12602732120_5_0" index="0" allow="pedestrian delivery bicycle" speed="3.65" length="4.67" shape="277.12,1138.51 276.39,1139.75 275.62,1140.20 274.79,1139.85 273.92,1138.70"/>
    </edge>
    <edge id=":12602732120_6" function="internal">
        <lane id=":12602732120_6_0" index="0" allow="pedestrian delivery bicycle" speed="5.12" length="5.09" shape="271.06,1142.16 272.39,1141.85 273.31,1141.17 273.82,1140.12 273.92,1138.70"/>
    </edge>
    <edge id=":12602732120_7" function="internal">
        <lane id=":12602732120_7_0" index="0" allow="pedestrian delivery bicycle" speed="5.56" length="9.40" shape="271.06,1142.16 280.43,1141.38"/>
    </edge>
    <edge id=":12602732120_8" function="internal">
        <lane id=":12602732120_8_0" index="0" allow="pedestrian delivery bicycle" speed="3.65" length="4.67" shape="271.06,1142.16 272.33,1142.86 272.79,1143.62 272.46,1144.45 271.33,1145.35"/>
    </edge>
    <edge id=":12602732125_0" function="internal">
        <lane id=":12602732125_0_0" index="0" allow="pedestrian delivery bicycle" speed="5.09" length="5.06" shape="324.57,1143.96 324.24,1142.64 323.56,1141.73 322.52,1141.24 321.12,1141.16"/>
    </edge>
    <edge id=":12602732125_1" function="internal">
        <lane id=":12602732125_1_0" index="0" allow="pedestrian delivery bicycle" speed="5.56" length="9.40" shape="324.57,1143.96 323.65,1134.60"/>
    </edge>
    <edge id=":12602732125_2" function="internal">
        <lane id=":12602732125_2_0" index="0" allow="pedestrian delivery bicycle" speed="3.65" length="4.67" shape="324.57,1143.96 325.25,1142.69 326.01,1142.21 326.84,1142.53 327.76,1143.65"/>
    </edge>
    <edge id=":12602732125_3" function="internal">
        <lane id=":12602732125_3_0" index="0" allow="pedestrian delivery bicycle" speed="5.56" length="9.40" shape="326.84,1134.29 327.76,1143.65"/>
    </edge>
    <edge id=":12602732125_4" function="internal">
        <lane id=":12602732125_4_0" index="0" allow="pedestrian delivery bicycle" speed="5.56" length="10.23" shape="326.84,1134.29 326.71,1137.10 325.72,1139.18 323.85,1140.53 321.12,1141.16"/>
    </edge>
    <edge id=":12602732125_5" function="internal">
        <lane id=":12602732125_5_0" index="0" allow="pedestrian delivery bicycle" speed="3.65" length="4.67" shape="326.84,1134.29 326.16,1135.56 325.40,1136.04 324.57,1135.72 323.65,1134.60"/>
    </edge>
    <edge id=":12602732125_6" function="internal">
        <lane id=":12602732125_6_0" index="0" allow="pedestrian delivery bicycle" speed="5.03" length="5.02" shape="320.85,1137.97 322.19,1137.66 323.11,1137.00 323.59,1135.98 323.65,1134.60"/>
    </edge>
    <edge id=":12602732125_7" function="internal">
        <lane id=":12602732125_7_0" index="0" allow="pedestrian delivery bicycle" speed="5.56" length="10.16" shape="320.85,1137.97 323.64,1138.13 325.73,1139.13 327.10,1140.97 327.76,1143.65"/>
    </edge>
    <edge id=":12602732125_8" function="internal">
        <lane id=":12602732125_8_0" index="0" allow="pedestrian delivery bicycle" speed="3.65" length="4.67" shape="320.85,1137.97 322.11,1138.67 322.58,1139.43 322.24,1140.26 321.12,1141.16"/>
    </edge>
    <edge id=":12602732126_0" function="internal">
        <lane id=":12602732126_0_0" index="0" allow="pedestrian delivery bicycle" speed="3.65" length="4.67" shape="333.07,1197.65 332.39,1198.93 331.64,1199.40 330.80,1199.08 329.89,1197.97"/>
    </edge>
    <edge id=":12602732128_0" function="internal">
        <lane id=":12602732128_0_0" index="0" allow="pedestrian delivery bicycle" speed="4.95" length="5.11" shape="322.61,1119.26 322.36,1117.86 321.73,1116.92 320.70,1116.43 319.28,1116.39"/>
    </edge>
    <edge id=":12602732128_1" function="internal">
        <lane id=":12602732128_1_0" index="0" allow="pedestrian delivery bicycle" speed="7.09" length="10.20" shape="322.61,1119.26 322.88,1116.39 323.92,1114.24 325.71,1112.82 328.27,1112.11"/>
    </edge>
    <edge id=":12602732128_2" function="internal">
        <lane id=":12602732128_2_0" index="0" allow="pedestrian delivery bicycle" speed="3.65" length="4.67" shape="322.61,1119.26 323.37,1118.03 324.16,1117.61 324.97,1117.98 325.81,1119.16"/>
    </edge>
    <edge id=":12602732128_3" function="internal">
        <lane id=":12602732128_3_0" index="0" allow="pedestrian delivery bicycle" speed="5.34" length="5.36" shape="328.64,1115.29 327.36,1115.66 326.46,1116.43 325.94,1117.59 325.81,1119.16"/>
    </edge>
    <edge id=":12602732128_4" function="internal">
        <lane id=":12602732128_4_0" index="0" disallow="tram rail_urban rail rail_electric rail_fast ship container cable_car subway aircraft wheelchair scooter drone" speed="22.22" length="9.42" shape="328.64,1115.29 319.28,1116.39"/>
    </edge>
    <edge id=":12602732128_5" function="internal">
        <lane id=":12602732128_5_0" index="0" disallow="tram rail_urban rail rail_electric rail_fast ship container cable_car subway aircraft wheelchair scooter drone" speed="22.22" length="9.42" shape="318.91,1113.22 328.27,1112.11"/>
    </edge>
    <edge id=":12602732128_6" function="internal">
        <lane id=":12602732128_6_0" index="0" allow="pedestrian delivery bicycle" speed="6.79" length="3.34" shape="318.91,1113.22 321.85,1113.29 322.21,1113.46"/>
    </edge>
    <edge id=":12602732128_7" function="internal">
        <lane id=":12602732128_7_0" index="0" allow="pedestrian delivery bicycle" speed="6.79" length="7.25" shape="322.21,1113.46 323.98,1114.31 325.30,1116.26 325.81,1119.16"/>
    </edge>
    <edge id=":12855767063_0" function="internal">
        <lane id=":12855767063_0_0" index="0" allow="pedestrian delivery bicycle" speed="4.89" length="5.20" shape="864.06,1174.03 863.11,1172.92 862.07,1172.45 860.94,1172.61 859.72,1173.42"/>
    </edge>
    <edge id=":12855767063_1" function="internal">
        <lane id=":12855767063_1_0" index="0" allow="pedestrian delivery bicycle" speed="5.56" length="10.27" shape="864.06,1174.03 862.77,1171.35 862.44,1168.91 863.08,1166.70 864.68,1164.73"/>
    </edge>
    <edge id=":12855767063_2" function="internal">
        <lane id=":12855767063_2_0" index="0" allow="pedestrian delivery bicycle" speed="3.65" length="4.67" shape="864.06,1174.03 864.09,1172.58 864.55,1171.82 865.44,1171.73 866.76,1172.31"/>
    </edge>
    <edge id=":12855767063_3" function="internal">
        <lane id=":12855767063_3_0" index="0" allow="pedestrian delivery bicycle" speed="5.56" length="5.71" shape="866.81,1167.12 866.00,1168.16 865.73,1169.37 865.98,1170.75 866.76,1172.31"/>
    </edge>
    <edge id=":12855767063_4" function="internal">
        <lane id=":12855767063_4_0" index="0" allow="pedestrian delivery bicycle" speed="5.56" length="9.48" shape="866.81,1167.12 859.72,1173.42"/>
    </edge>
    <edge id=":12855767063_5" function="internal">
        <lane id=":12855767063_5_0" index="0" allow="pedestrian delivery bicycle" speed="3.65" length="4.67" shape="866.81,1167.12 865.38,1167.32 864.55,1166.99 864.31,1166.12 864.68,1164.73"/>
    </edge>
    <edge id=":12855767063_6" function="internal">
        <lane id=":12855767063_6_0" index="0" allow="pedestrian delivery bicycle" speed="5.56" length="9.48" shape="857.60,1171.03 864.68,1164.73"/>
    </edge>
    <edge id=":12855767063_7" function="internal">
        <lane id=":12855767063_7_0" index="0" allow="pedestrian delivery bicycle" speed="5.56" length="10.99" shape="857.60,1171.03 860.17,1169.33 862.56,1168.98 864.75,1169.97 866.76,1172.31"/>
    </edge>
    <edge id=":12855767063_8" function="internal">
        <lane id=":12855767063_8_0" index="0" allow="pedestrian delivery bicycle" speed="3.65" length="4.67" shape="857.60,1171.03 859.02,1170.83 859.85,1171.16 860.09,1172.02 859.72,1173.42"/>
    </edge>
    <edge id=":12855767064_0" function="internal">
        <lane id=":12855767064_0_0" index="0" allow="pedestrian delivery bicycle" speed="3.65" length="4.67" shape="872.81,1181.83 872.78,1183.27 872.32,1184.04 871.43,1184.13 870.11,1183.55"/>
    </edge>
    <edge id=":12855767065_0" function="internal">
        <lane id=":12855767065_0_0" index="0" allow="pedestrian delivery bicycle" speed="3.65" length="4.67" shape="888.60,1181.71 888.31,1183.13 887.72,1183.79 886.82,1183.72 885.64,1182.91"/>
    </edge>
    <edge id=":12855767071_0" function="internal">
        <lane id=":12855767071_0_0" index="0" allow="pedestrian delivery bicycle" speed="4.81" length="5.34" shape="852.98,1183.69 852.20,1182.38 851.24,1181.75 850.10,1181.81 848.76,1182.54"/>
    </edge>
    <edge id=":12855767071_1" function="internal">
        <lane id=":12855767071_1_0" index="0" allow="pedestrian delivery bicycle" speed="5.56" length="10.26" shape="852.98,1183.69 852.07,1180.75 851.95,1178.18 852.62,1175.98 854.06,1174.17"/>
    </edge>
    <edge id=":12855767071_2" function="internal">
        <lane id=":12855767071_2_0" index="0" allow="pedestrian delivery bicycle" speed="3.65" length="4.67" shape="852.98,1183.69 853.26,1182.27 853.84,1181.60 854.74,1181.66 855.93,1182.47"/>
    </edge>
    <edge id=":12855767071_3" function="internal">
        <lane id=":12855767071_3_0" index="0" allow="pedestrian delivery bicycle" speed="5.56" length="6.30" shape="856.19,1176.56 855.43,1177.58 855.14,1178.91 855.30,1180.54 855.93,1182.47"/>
    </edge>
    <edge id=":12855767071_4" function="internal">
        <lane id=":12855767071_4_0" index="0" allow="pedestrian delivery bicycle" speed="5.56" length="9.53" shape="856.19,1176.56 848.76,1182.54"/>
    </edge>
    <edge id=":12855767071_5" function="internal">
        <lane id=":12855767071_5_0" index="0" allow="pedestrian delivery bicycle" speed="3.65" length="4.67" shape="856.19,1176.56 854.76,1176.76 853.93,1176.42 853.70,1175.56 854.06,1174.17"/>
    </edge>
    <edge id=":12855767071_6" function="internal">
        <lane id=":12855767071_6_0" index="0" allow="pedestrian delivery bicycle" speed="5.56" length="9.28" shape="846.84,1179.98 854.06,1174.17"/>
    </edge>
    <edge id=":12855767071_7" function="internal">
        <lane id=":12855767071_7_0" index="0" allow="pedestrian delivery bicycle" speed="5.56" length="11.52" shape="846.84,1179.98 849.71,1178.40 852.19,1178.29 854.26,1179.64 855.93,1182.47"/>
    </edge>
    <edge id=":12855767071_8" function="internal">
        <lane id=":12855767071_8_0" index="0" allow="pedestrian delivery bicycle" speed="3.65" length="4.67" shape="846.84,1179.98 848.28,1179.90 849.08,1180.30 849.24,1181.18 848.76,1182.54"/>
    </edge>
    <edge id=":12855767073_0" function="internal">
        <lane id=":12855767073_0_0" index="0" allow="pedestrian delivery bicycle" speed="3.65" length="4.67" shape="872.60,1222.74 872.32,1224.15 871.73,1224.83 870.84,1224.76 869.64,1223.96"/>
    </edge>
    <edge id=":12855787564_0" function="internal">
        <lane id=":12855787564_0_0" index="0" allow="pedestrian delivery bicycle" speed="3.65" length="4.67" shape="728.33,787.40 729.05,788.65 729.05,789.54 728.34,790.08 726.91,790.26"/>
    </edge>
    <edge id=":2062343335_0" function="internal">
        <lane id=":2062343335_0_0" index="0" disallow="tram rail_urban rail rail_electric rail_fast ship container cable_car subway aircraft wheelchair scooter drone" speed="13.97" length="13.10" shape="612.27,1002.70 615.70,1004.05 618.20,1004.68 620.76,1004.62 624.35,1003.89"/>
        <lane id=":2062343335_0_1" index="1" disallow="tram rail_urban rail rail_electric rail_fast ship container cable_car subway aircraft wheelchair scooter drone" speed="14.61" length="13.10" shape="611.82,1005.97 615.59,1007.41 618.34,1008.01 621.16,1007.85 625.10,1007.00"/>
    </edge>
    <edge id=":2062343335_2" function="internal">
        <lane id=":2062343335_2_0" index="0" disallow="tram rail_urban rail rail_electric rail_fast ship container cable_car subway aircraft wheelchair scooter drone" speed="12.99" length="13.24" shape="613.06,1010.66 615.53,1007.55 617.73,1005.83 620.42,1004.84 624.35,1003.89"/>
        <lane id=":2062343335_2_1" index="1" disallow="tram rail_urban rail rail_electric rail_fast ship container cable_car subway aircraft wheelchair scooter drone" speed="12.58" length="13.24" shape="614.79,1013.76 617.06,1010.78 619.03,1009.03 621.46,1007.95 625.10,1007.00"/>
    </edge>
    <edge id=":2078744371_0" function="internal">
        <lane id=":2078744371_0_0" index="0" disallow="pedestrian bicycle tram rail_urban rail rail_electric rail_fast ship container cable_car subway aircraft wheelchair scooter drone" speed="6.54" length="9.09" shape="87.59,1061.62 85.17,1062.27 83.54,1063.53 82.69,1065.39 82.63,1067.87"/>
    </edge>
    <edge id=":2078744371_1" function="internal">
        <lane id=":2078744371_1_0" index="0" disallow="tram rail_urban rail rail_electric rail_fast ship container cable_car subway aircraft wheelchair scooter drone" speed="3.65" length="4.67" shape="87.59,1061.62 86.30,1060.97 85.81,1060.23 86.11,1059.38 87.20,1058.44"/>
    </edge>
    <edge id=":2078744371_2" function="internal">
        <lane id=":2078744371_2_0" index="0" disallow="pedestrian bicycle tram rail_urban rail rail_electric rail_fast ship container cable_car subway aircraft wheelchair scooter drone" speed="6.47" length="9.03" shape="81.03,1053.53 81.63,1055.94 82.86,1057.56 84.72,1058.39 87.20,1058.44"/>
    </edge>
    <edge id=":2078744371_3" function="internal">
        <lane id=":2078744371_3_0" index="0" disallow="pedestrian bicycle tram rail_urban rail rail_electric rail_fast ship container cable_car subway aircraft wheelchair scooter drone" speed="22.22" length="14.45" shape="81.03,1053.53 82.63,1067.87"/>
        <lane id=":2078744371_3_1" index="1" disallow="pedestrian bicycle tram rail_urban rail rail_electric rail_fast ship container cable_car subway aircraft wheelchair scooter drone" speed="22.22" length="14.45" shape="77.85,1053.86 79.45,1068.25"/>
    </edge>
    <edge id=":2078744373_0" function="internal">
        <lane id=":2078744373_0_0" index="0" disallow="pedestrian bicycle tram rail_urban rail rail_electric rail_fast ship container cable_car subway aircraft wheelchair scooter drone" speed="6.51" length="9.01" shape="63.84,834.71 61.45,835.32 59.82,836.55 58.97,838.40 58.87,840.87"/>
    </edge>
    <edge id=":2078744373_1" function="internal">
        <lane id=":2078744373_1_0" index="0" disallow="tram rail_urban rail rail_electric rail_fast ship container cable_car subway aircraft wheelchair scooter drone" speed="3.65" length="4.67" shape="63.84,834.71 62.56,834.05 62.07,833.29 62.38,832.46 63.49,831.53"/>
    </edge>
    <edge id=":2078744373_2" function="internal">
        <lane id=":2078744373_2_0" index="0" disallow="pedestrian bicycle tram rail_urban rail rail_electric rail_fast ship container cable_car subway aircraft wheelchair scooter drone" speed="6.53" length="9.02" shape="57.27,826.61 57.90,828.99 59.15,830.60 61.01,831.45 63.49,831.53"/>
    </edge>
    <edge id=":2078744373_3" function="internal">
        <lane id=":2078744373_3_0" index="0" disallow="pedestrian bicycle tram rail_urban rail rail_electric rail_fast ship container cable_car subway aircraft wheelchair scooter drone" speed="22.22" length="14.32" shape="57.27,826.61 58.87,840.87"/>
        <lane id=":2078744373_3_1" index="1" disallow="pedestrian bicycle tram rail_urban rail rail_electric rail_fast ship container cable_car subway aircraft wheelchair scooter drone" speed="22.22" length="14.32" shape="54.09,826.99 55.69,841.20"/>
    </edge>
    <edge id=":2078773942_0" function="internal">
        <lane id=":2078773942_0_0" index="0" disallow="pedestrian bicycle tram rail_urban rail rail_electric rail_fast ship container cable_car subway aircraft wheelchair scooter drone" speed="22.22" length="7.32" shape="106.47,1266.30 107.03,1268.36 107.87,1269.66 108.69,1270.96 109.22,1273.03"/>