<?xml version="1.0" encoding="UTF-8"?>

<!-- generated on 2025-10-20 01:19:21 by Eclipse SUMO netedit Version 1.22.0
<neteditConfiguration xmlns:xsi="http://www.w3.org/2001/XMLSchema-instance" xsi:noNamespaceSchemaLocation="http://sumo.dlr.de/xsd/neteditConfiguration.xsd">

    <input>
        <sumo-net-file value="C:\Users\EDMILSON\Documents\Prox_BatalhaoPolicia.net.xml"/>
        <osm-files value="C:\Users\EDMILSON\Documents\Prox_BatalhaoPolicia\Prox_BatalhaoPolicia.osm"/>
    </input>

    <output>
        <output-file value="C:\Users\EDMILSON\Documents\Prox_BatalhaoPolicia.net.xml"/>
    </output>

    <projection>
        <proj.utm value="true"/>
    </projection>

    <processing>
        <geometry.remove value="true"/>
        <offset.disable-normalization value="true"/>
    </processing>

    <tls_building>
        <tls.discard-simple value="true"/>
        <tls.guess-signals value="true"/>
    </tls_building>

    <ramp_guessing>
        <ramps.guess value="true"/>
    </ramp_guessing>

    <junctions>
        <no-turnarounds value="true"/>
        <junctions.join value="true"/>
    </junctions>

</neteditConfiguration>
-->

<net version="1.20" junctionCornerDetail="5" limitTurnSpeed="5.50" xmlns:xsi="http://www.w3.org/2001/XMLSchema-instance" xsi:noNamespaceSchemaLocation="http://sumo.dlr.de/xsd/net_file.xsd">

    <location netOffset="0.00,0.00" convBoundary="299321.09,-1644219.18,301134.74,-1641509.30" origBoundary="-40.865067,-14.864938,-40.848194,-14.840466" projParameter="+proj=utm +zone=24 +ellps=WGS84 +datum=WGS84 +units=m +no_defs"/>

    <type id="highway.cycleway" priority="1" numLanes="1" speed="5.56" allow="bicycle" oneway="0" width="2.00"/>
    <type id="highway.primary" priority="12" numLanes="2" speed="27.78" disallow="tram rail_urban rail rail_electric rail_fast ship container cable_car subway aircraft wheelchair scooter drone" oneway="0"/>
    <type id="highway.residential" priority="3" numLanes="1" speed="13.89" disallow="tram rail_urban rail rail_electric rail_fast ship container cable_car subway aircraft wheelchair scooter drone" oneway="0"/>
    <type id="highway.service" priority="1" numLanes="1" speed="5.56" allow="pedestrian delivery bicycle" oneway="0"/>
    <type id="highway.tertiary" priority="10" numLanes="1" speed="22.22" disallow="tram rail_urban rail rail_electric rail_fast ship container cable_car subway aircraft wheelchair scooter drone" oneway="0"/>

    <edge id=":2077976045_0" function="internal">
        <lane id=":2077976045_0_0" index="0" disallow="tram rail_urban rail rail_electric rail_fast ship container cable_car subway aircraft wheelchair scooter drone" speed="13.89" length="14.52" shape="300498.23,-1642586.31 300496.65,-1642600.75"/>
    </edge>
    <edge id=":2077976045_1" function="internal">
        <lane id=":2077976045_1_0" index="0" disallow="tram rail_urban rail rail_electric rail_fast ship container cable_car subway aircraft wheelchair scooter drone" speed="6.60" length="9.21" shape="300501.41,-1642586.66 300501.49,-1642589.18 300502.35,-1642591.08 300504.00,-1642592.36 300506.42,-1642593.03"/>
    </edge>
    <edge id=":2077976045_2" function="internal">
        <lane id=":2077976045_2_0" index="0" disallow="tram rail_urban rail rail_electric rail_fast ship container cable_car subway aircraft wheelchair scooter drone" speed="6.47" length="9.03" shape="300499.83,-1642601.09 300500.45,-1642598.69 300501.68,-1642597.07 300503.54,-1642596.25 300506.02,-1642596.20"/>
    </edge>
    <edge id=":2077976045_3" function="internal">
        <lane id=":2077976045_3_0" index="0" disallow="tram rail_urban rail rail_electric rail_fast ship container cable_car subway aircraft wheelchair scooter drone" speed="6.62" length="9.23" shape="300491.62,-1642594.36 300494.05,-1642595.03 300495.70,-1642596.32 300496.57,-1642598.23 300496.65,-1642600.75"/>
    </edge>
    <edge id=":2077976045_4" function="internal">
        <lane id=":2077976045_4_0" index="0" disallow="tram rail_urban rail rail_electric rail_fast ship container cable_car subway aircraft wheelchair scooter drone" speed="27.78" length="14.52" shape="300491.62,-1642594.36 300506.02,-1642596.20"/>
        <lane id=":2077976045_4_1" index="1" disallow="tram rail_urban rail rail_electric rail_fast ship container cable_car subway aircraft wheelchair scooter drone" speed="27.78" length="14.52" shape="300492.03,-1642591.18 300506.42,-1642593.03"/>
    </edge>
    <edge id=":2077976047_0" function="internal">
        <lane id=":2077976047_0_0" index="0" disallow="tram rail_urban rail rail_electric rail_fast ship container cable_car subway aircraft wheelchair scooter drone" speed="13.89" length="14.40" shape="300544.55,-1642166.18 300542.97,-1642180.50"/>
    </edge>
    <edge id=":2077976047_1" function="internal">
        <lane id=":2077976047_1_0" index="0" disallow="tram rail_urban rail rail_electric rail_fast ship container cable_car subway aircraft wheelchair scooter drone" speed="8.01" length="4.07" shape="300544.55,-1642166.18 300544.67,-1642170.07 300544.75,-1642170.23"/>
    </edge>
    <edge id=":2077976047_6" function="internal">
        <lane id=":2077976047_6_0" index="0" disallow="tram rail_urban rail rail_electric rail_fast ship container cable_car subway aircraft wheelchair scooter drone" speed="8.01" length="10.13" shape="300544.75,-1642170.23 300546.01,-1642172.98 300548.56,-1642174.93 300552.33,-1642175.91"/>
    </edge>
    <edge id=":2077976047_2" function="internal">
        <lane id=":2077976047_2_0" index="0" disallow="tram rail_urban rail rail_electric rail_fast ship container cable_car subway aircraft wheelchair scooter drone" speed="6.52" length="9.05" shape="300552.69,-1642172.73 300550.29,-1642172.10 300548.66,-1642170.86 300547.81,-1642169.01 300547.73,-1642166.54"/>
    </edge>
    <edge id=":2077976047_3" function="internal">
        <lane id=":2077976047_3_0" index="0" disallow="tram rail_urban rail rail_electric rail_fast ship container cable_car subway aircraft wheelchair scooter drone" speed="8.00" length="14.20" shape="300552.69,-1642172.73 300548.80,-1642172.84 300545.88,-1642174.18 300543.94,-1642176.73 300542.97,-1642180.50"/>
    </edge>
    <edge id=":2077976047_4" function="internal">
        <lane id=":2077976047_4_0" index="0" disallow="tram rail_urban rail rail_electric rail_fast ship container cable_car subway aircraft wheelchair scooter drone" speed="6.50" length="9.03" shape="300546.15,-1642180.85 300546.77,-1642178.45 300548.00,-1642176.83 300549.86,-1642175.98 300552.33,-1642175.91"/>
    </edge>
    <edge id=":2077976047_5" function="internal">
        <lane id=":2077976047_5_0" index="0" disallow="tram rail_urban rail rail_electric rail_fast ship container cable_car subway aircraft wheelchair scooter drone" speed="13.89" length="14.40" shape="300546.15,-1642180.85 300547.73,-1642166.54"/>
    </edge>
    <edge id=":2077976049_0" function="internal">
        <lane id=":2077976049_0_0" index="0" disallow="tram rail_urban rail rail_electric rail_fast ship container cable_car subway aircraft wheelchair scooter drone" speed="6.57" length="9.16" shape="300477.97,-1642762.72 300477.32,-1642765.15 300476.06,-1642766.80 300474.17,-1642767.66 300471.68,-1642767.74"/>
    </edge>
    <edge id=":2077976049_1" function="internal">
        <lane id=":2077976049_1_0" index="0" disallow="tram rail_urban rail rail_electric rail_fast ship container cable_car subway aircraft wheelchair scooter drone" speed="13.89" length="14.50" shape="300477.97,-1642762.72 300476.23,-1642777.11"/>
    </edge>
    <edge id=":2077976049_2" function="internal">
        <lane id=":2077976049_2_0" index="0" disallow="tram rail_urban rail rail_electric rail_fast ship container cable_car subway aircraft wheelchair scooter drone" speed="7.96" length="4.09" shape="300477.97,-1642762.72 300478.06,-1642766.64 300478.12,-1642766.79"/>
    </edge>
    <edge id=":2077976049_12" function="internal">
        <lane id=":2077976049_12_0" index="0" disallow="tram rail_urban rail rail_electric rail_fast ship container cable_car subway aircraft wheelchair scooter drone" speed="7.96" length="10.18" shape="300478.12,-1642766.79 300479.38,-1642769.57 300481.95,-1642771.51 300485.75,-1642772.45"/>
    </edge>
    <edge id=":2077976049_3" function="internal">
        <lane id=":2077976049_3_0" index="0" disallow="tram rail_urban rail rail_electric rail_fast ship container cable_car subway aircraft wheelchair scooter drone" speed="6.46" length="9.03" shape="300486.07,-1642769.26 300483.66,-1642768.67 300482.04,-1642767.44 300481.20,-1642765.59 300481.15,-1642763.11"/>
    </edge>
    <edge id=":2077976049_4" function="internal">
        <lane id=":2077976049_4_0" index="0" disallow="tram rail_urban rail rail_electric rail_fast ship container cable_car subway aircraft wheelchair scooter drone" speed="13.89" length="14.48" shape="300486.07,-1642769.26 300471.68,-1642767.74"/>
    </edge>
    <edge id=":2077976049_5" function="internal">
        <lane id=":2077976049_5_0" index="0" disallow="tram rail_urban rail rail_electric rail_fast ship container cable_car subway aircraft wheelchair scooter drone" speed="8.08" length="14.29" shape="300486.07,-1642769.26 300482.16,-1642769.42 300479.22,-1642770.78 300477.24,-1642773.35 300476.23,-1642777.11"/>
    </edge>
    <edge id=":2077976049_6" function="internal">
        <lane id=":2077976049_6_0" index="0" disallow="tram rail_urban rail rail_electric rail_fast ship container cable_car subway aircraft wheelchair scooter drone" speed="6.61" length="9.20" shape="300479.41,-1642777.49 300480.06,-1642775.07 300481.33,-1642773.42 300483.23,-1642772.55 300485.75,-1642772.45"/>
    </edge>
    <edge id=":2077976049_7" function="internal">
        <lane id=":2077976049_7_0" index="0" disallow="tram rail_urban rail rail_electric rail_fast ship container cable_car subway aircraft wheelchair scooter drone" speed="13.89" length="14.49" shape="300479.41,-1642777.49 300481.15,-1642763.11"/>
    </edge>
    <edge id=":2077976049_8" function="internal">
        <lane id=":2077976049_8_0" index="0" disallow="tram rail_urban rail rail_electric rail_fast ship container cable_car subway aircraft wheelchair scooter drone" speed="7.99" length="4.07" shape="300479.41,-1642777.49 300479.32,-1642773.59 300479.26,-1642773.44"/>
    </edge>
    <edge id=":2077976049_13" function="internal">
        <lane id=":2077976049_13_0" index="0" disallow="tram rail_urban rail rail_electric rail_fast ship container cable_car subway aircraft wheelchair scooter drone" speed="7.99" length="10.16" shape="300479.26,-1642773.44 300478.00,-1642770.67 300475.46,-1642768.72 300471.68,-1642767.74"/>
    </edge>
    <edge id=":2077976049_9" function="internal">
        <lane id=":2077976049_9_0" index="0" disallow="tram rail_urban rail rail_electric rail_fast ship container cable_car subway aircraft wheelchair scooter drone" speed="6.49" length="9.03" shape="300471.32,-1642770.92 300473.72,-1642771.54 300475.34,-1642772.78 300476.18,-1642774.64 300476.23,-1642777.11"/>
    </edge>
    <edge id=":2077976049_10" function="internal">
        <lane id=":2077976049_10_0" index="0" disallow="tram rail_urban rail rail_electric rail_fast ship container cable_car subway aircraft wheelchair scooter drone" speed="13.89" length="14.51" shape="300471.32,-1642770.92 300485.75,-1642772.45"/>
    </edge>
    <edge id=":2077976049_11" function="internal">
        <lane id=":2077976049_11_0" index="0" disallow="tram rail_urban rail rail_electric rail_fast ship container cable_car subway aircraft wheelchair scooter drone" speed="8.06" length="14.28" shape="300471.32,-1642770.92 300475.22,-1642770.80 300478.16,-1642769.45 300480.13,-1642766.89 300481.15,-1642763.11"/>
    </edge>
    <edge id=":2077976053_0" function="internal">
        <lane id=":2077976053_0_0" index="0" disallow="tram rail_urban rail rail_electric rail_fast ship container cable_car subway aircraft wheelchair scooter drone" speed="6.49" length="9.03" shape="300536.70,-1642237.81 300536.08,-1642240.21 300534.85,-1642241.83 300532.99,-1642242.68 300530.51,-1642242.74"/>
    </edge>
    <edge id=":2077976053_1" function="internal">
        <lane id=":2077976053_1_0" index="0" disallow="tram rail_urban rail rail_electric rail_fast ship container cable_car subway aircraft wheelchair scooter drone" speed="13.89" length="14.63" shape="300536.70,-1642237.81 300535.09,-1642252.13"/>
        <lane id=":2077976053_1_1" index="1" disallow="tram rail_urban rail rail_electric rail_fast ship container cable_car subway aircraft wheelchair scooter drone" speed="13.89" length="14.63" shape="300536.70,-1642237.81 300536.83,-1642241.17 300537.60,-1642244.26 300538.30,-1642247.80 300538.27,-1642252.49"/>
    </edge>
    <edge id=":2077976053_3" function="internal">
        <lane id=":2077976053_3_0" index="0" disallow="tram rail_urban rail rail_electric rail_fast ship container cable_car subway aircraft wheelchair scooter drone" speed="6.53" length="9.07" shape="300544.83,-1642244.38 300542.44,-1642243.76 300540.81,-1642242.51 300539.96,-1642240.64 300539.88,-1642238.16"/>
    </edge>
    <edge id=":2077976053_4" function="internal">
        <lane id=":2077976053_4_0" index="0" disallow="tram rail_urban rail rail_electric rail_fast ship container cable_car subway aircraft wheelchair scooter drone" speed="22.22" length="14.42" shape="300544.83,-1642244.38 300530.51,-1642242.74"/>
        <lane id=":2077976053_4_1" index="1" disallow="tram rail_urban rail rail_electric rail_fast ship container cable_car subway aircraft wheelchair scooter drone" speed="22.22" length="14.42" shape="300544.47,-1642247.56 300530.15,-1642245.92"/>
    </edge>
    <edge id=":2077976053_6" function="internal">
        <lane id=":2077976053_6_0" index="0" disallow="tram rail_urban rail rail_electric rail_fast ship container cable_car subway aircraft wheelchair scooter drone" speed="6.51" length="9.03" shape="300544.47,-1642247.56 300542.00,-1642247.64 300540.14,-1642248.48 300538.90,-1642250.10 300538.27,-1642252.49"/>
    </edge>
    <edge id=":2077976055_0" function="internal">
        <lane id=":2077976055_0_0" index="0" disallow="tram rail_urban rail rail_electric rail_fast ship container cable_car subway aircraft wheelchair scooter drone" speed="13.89" length="9.50" shape="300528.10,-1642313.28 300527.17,-1642322.79"/>
        <lane id=":2077976055_0_1" index="1" disallow="tram rail_urban rail rail_electric rail_fast ship container cable_car subway aircraft wheelchair scooter drone" speed="13.89" length="9.50" shape="300531.28,-1642313.65 300530.36,-1642323.05"/>
    </edge>
    <edge id=":2077976055_2" function="internal">
        <lane id=":2077976055_2_0" index="0" disallow="tram rail_urban rail rail_electric rail_fast ship container cable_car subway aircraft wheelchair scooter drone" speed="6.07" length="7.80" shape="300531.28,-1642313.65 300531.16,-1642316.41 300531.53,-1642318.44 300532.39,-1642319.71 300533.73,-1642320.25"/>
    </edge>
    <edge id=":2077976055_3" function="internal">
        <lane id=":2077976055_3_0" index="0" disallow="tram rail_urban rail rail_electric rail_fast ship container cable_car subway aircraft wheelchair scooter drone" speed="6.06" length="7.81" shape="300534.05,-1642317.06 300532.63,-1642317.32 300531.54,-1642318.40 300530.78,-1642320.31 300530.36,-1642323.05"/>
    </edge>
    <edge id=":2077976067_0" function="internal">
        <lane id=":2077976067_0_0" index="0" disallow="tram rail_urban rail rail_electric rail_fast ship container cable_car subway aircraft wheelchair scooter drone" speed="6.54" length="9.05" shape="300516.91,-1642417.13 300516.24,-1642419.54 300514.98,-1642421.16 300513.12,-1642422.01 300510.67,-1642422.07"/>
        <lane id=":2077976067_0_1" index="1" disallow="tram rail_urban rail rail_electric rail_fast ship container cable_car subway aircraft wheelchair scooter drone" speed="8.03" length="14.16" shape="300520.08,-1642417.55 300519.04,-1642421.30 300517.06,-1642423.84 300514.14,-1642425.15 300510.29,-1642425.25"/>
    </edge>
    <edge id=":2077976067_2" function="internal">
        <lane id=":2077976067_2_0" index="0" disallow="tram rail_urban rail rail_electric rail_fast ship container cable_car subway aircraft wheelchair scooter drone" speed="13.89" length="14.58" shape="300520.08,-1642417.55 300519.02,-1642421.77 300517.57,-1642424.48 300516.15,-1642427.20 300515.18,-1642431.43"/>
        <lane id=":2077976067_2_1" index="1" disallow="tram rail_urban rail rail_electric rail_fast ship container cable_car subway aircraft wheelchair scooter drone" speed="13.89" length="14.58" shape="300520.08,-1642417.55 300518.36,-1642431.78"/>
    </edge>
    <edge id=":2077976067_4" function="internal">
        <lane id=":2077976067_4_0" index="0" disallow="tram rail_urban rail rail_electric rail_fast ship container cable_car subway aircraft wheelchair scooter drone" speed="27.78" length="14.33" shape="300524.90,-1642423.69 300510.67,-1642422.07"/>
        <lane id=":2077976067_4_1" index="1" disallow="tram rail_urban rail rail_electric rail_fast ship container cable_car subway aircraft wheelchair scooter drone" speed="27.78" length="14.33" shape="300524.55,-1642426.88 300510.29,-1642425.25"/>
    </edge>
    <edge id=":2077976067_6" function="internal">
        <lane id=":2077976067_6_0" index="0" disallow="tram rail_urban rail rail_electric rail_fast ship container cable_car subway aircraft wheelchair scooter drone" speed="6.50" length="9.00" shape="300524.55,-1642426.88 300522.07,-1642426.95 300520.21,-1642427.79 300518.97,-1642429.40 300518.36,-1642431.78"/>
    </edge>
    <edge id=":2078083283_0" function="internal">
        <lane id=":2078083283_0_0" index="0" disallow="tram rail_urban rail rail_electric rail_fast ship container cable_car subway aircraft wheelchair scooter drone" speed="6.50" length="9.03" shape="300338.81,-1642215.07 300338.19,-1642217.46 300336.96,-1642219.09 300335.10,-1642219.93 300332.62,-1642220.00"/>
    </edge>
    <edge id=":2078083283_1" function="internal">
        <lane id=":2078083283_1_0" index="0" disallow="tram rail_urban rail rail_electric rail_fast ship container cable_car subway aircraft wheelchair scooter drone" speed="13.89" length="14.42" shape="300338.81,-1642215.07 300337.22,-1642229.40"/>
    </edge>
    <edge id=":2078083283_2" function="internal">
        <lane id=":2078083283_2_0" index="0" disallow="tram rail_urban rail rail_electric rail_fast ship container cable_car subway aircraft wheelchair scooter drone" speed="6.53" length="9.07" shape="300346.95,-1642221.64 300344.55,-1642221.01 300342.92,-1642219.77 300342.07,-1642217.90 300341.99,-1642215.41"/>
    </edge>
    <edge id=":2078083283_3" function="internal">
        <lane id=":2078083283_3_0" index="0" disallow="tram rail_urban rail rail_electric rail_fast ship container cable_car subway aircraft wheelchair scooter drone" speed="22.22" length="14.42" shape="300346.95,-1642221.64 300332.62,-1642220.00"/>
        <lane id=":2078083283_3_1" index="1" disallow="tram rail_urban rail rail_electric rail_fast ship container cable_car subway aircraft wheelchair scooter drone" speed="22.22" length="14.42" shape="300346.59,-1642224.82 300332.26,-1642223.18"/>
    </edge>
    <edge id=":2078083283_5" function="internal">
        <lane id=":2078083283_5_0" index="0" disallow="tram rail_urban rail rail_electric rail_fast ship container cable_car subway aircraft wheelchair scooter drone" speed="7.32" length="11.73" shape="300346.59,-1642224.82 300342.72,-1642224.73 300339.87,-1642225.47 300338.04,-1642227.02 300337.22,-1642229.40"/>
    </edge>
    <edge id=":2078083283_6" function="internal">
        <lane id=":2078083283_6_0" index="0" disallow="tram rail_urban rail rail_electric rail_fast ship container cable_car subway aircraft wheelchair scooter drone" speed="13.89" length="14.43" shape="300340.40,-1642229.75 300341.99,-1642215.41"/>
    </edge>
    <edge id=":2078083283_7" function="internal">
        <lane id=":2078083283_7_0" index="0" disallow="tram rail_urban rail rail_electric rail_fast ship container cable_car subway aircraft wheelchair scooter drone" speed="7.34" length="11.76" shape="300340.40,-1642229.75 300340.13,-1642227.26 300338.68,-1642225.33 300336.05,-1642223.97 300332.26,-1642223.18"/>
    </edge>
    <edge id=":2078092355_0" function="internal">
        <lane id=":2078092355_0_0" index="0" disallow="tram rail_urban rail rail_electric rail_fast ship container cable_car subway aircraft wheelchair scooter drone" speed="13.89" length="14.42" shape="300388.80,-1642663.09 300386.98,-1642677.40"/>
    </edge>
    <edge id=":2078092355_1" function="internal">
        <lane id=":2078092355_1_0" index="0" disallow="tram rail_urban rail rail_electric rail_fast ship container cable_car subway aircraft wheelchair scooter drone" speed="7.32" length="11.73" shape="300388.80,-1642663.09 300389.05,-1642665.60 300390.48,-1642667.53 300393.09,-1642668.89 300396.88,-1642669.69"/>
    </edge>
    <edge id=":2078092355_2" function="internal">
        <lane id=":2078092355_2_0" index="0" disallow="tram rail_urban rail rail_electric rail_fast ship container cable_car subway aircraft wheelchair scooter drone" speed="6.58" length="9.15" shape="300390.16,-1642677.83 300390.83,-1642675.41 300392.12,-1642673.78 300394.01,-1642672.93 300396.50,-1642672.87"/>
    </edge>
    <edge id=":2078092355_3" function="internal">
        <lane id=":2078092355_3_0" index="0" disallow="tram rail_urban rail rail_electric rail_fast ship container cable_car subway aircraft wheelchair scooter drone" speed="13.89" length="14.47" shape="300390.16,-1642677.83 300391.98,-1642663.47"/>
    </edge>
    <edge id=":2078092355_4" function="internal">
        <lane id=":2078092355_4_0" index="0" disallow="tram rail_urban rail rail_electric rail_fast ship container cable_car subway aircraft wheelchair scooter drone" speed="6.48" length="9.03" shape="300382.15,-1642671.15 300384.55,-1642671.80 300386.15,-1642673.06 300386.96,-1642674.92 300386.98,-1642677.40"/>
    </edge>
    <edge id=":2078092355_5" function="internal">
        <lane id=":2078092355_5_0" index="0" disallow="tram rail_urban rail rail_electric rail_fast ship container cable_car subway aircraft wheelchair scooter drone" speed="13.89" length="14.45" shape="300382.15,-1642671.15 300396.50,-1642672.87"/>
        <lane id=":2078092355_5_1" index="1" disallow="tram rail_urban rail rail_electric rail_fast ship container cable_car subway aircraft wheelchair scooter drone" speed="13.89" length="14.45" shape="300382.54,-1642667.97 300396.88,-1642669.69"/>
    </edge>
    <edge id=":2078092355_7" function="internal">
        <lane id=":2078092355_7_0" index="0" disallow="tram rail_urban rail rail_electric rail_fast ship container cable_car subway aircraft wheelchair scooter drone" speed="7.33" length="11.76" shape="300382.54,-1642667.97 300386.42,-1642668.10 300389.28,-1642667.39 300391.14,-1642665.85 300391.98,-1642663.47"/>
    </edge>
    <edge id=":2078092359_0" function="internal">
        <lane id=":2078092359_0_0" index="0" disallow="tram rail_urban rail rail_electric rail_fast ship container cable_car subway aircraft wheelchair scooter drone" speed="6.52" length="9.08" shape="300318.68,-1642395.67 300318.05,-1642398.08 300316.81,-1642399.72 300314.95,-1642400.57 300312.46,-1642400.65"/>
    </edge>
    <edge id=":2078092359_1" function="internal">
        <lane id=":2078092359_1_0" index="0" disallow="tram rail_urban rail rail_electric rail_fast ship container cable_car subway aircraft wheelchair scooter drone" speed="13.89" length="14.45" shape="300318.68,-1642395.67 300317.01,-1642410.03"/>
    </edge>
    <edge id=":2078092359_2" function="internal">
        <lane id=":2078092359_2_0" index="0" disallow="tram rail_urban rail rail_electric rail_fast ship container cable_car subway aircraft wheelchair scooter drone" speed="6.48" length="9.03" shape="300326.83,-1642402.16 300324.42,-1642401.57 300322.79,-1642400.35 300321.93,-1642398.50 300321.86,-1642396.03"/>
    </edge>
    <edge id=":2078092359_3" function="internal">
        <lane id=":2078092359_3_0" index="0" disallow="tram rail_urban rail rail_electric rail_fast ship container cable_car subway aircraft wheelchair scooter drone" speed="27.78" length="14.47" shape="300326.83,-1642402.16 300312.46,-1642400.65"/>
        <lane id=":2078092359_3_1" index="1" disallow="tram rail_urban rail rail_electric rail_fast ship container cable_car subway aircraft wheelchair scooter drone" speed="27.78" length="14.47" shape="300326.51,-1642405.35 300312.10,-1642403.83"/>
    </edge>
    <edge id=":2078092359_5" function="internal">
        <lane id=":2078092359_5_0" index="0" disallow="tram rail_urban rail rail_electric rail_fast ship container cable_car subway aircraft wheelchair scooter drone" speed="7.42" length="11.86" shape="300326.51,-1642405.35 300322.61,-1642405.31 300319.72,-1642406.08 300317.85,-1642407.65 300317.01,-1642410.03"/>
    </edge>
    <edge id=":2078092359_6" function="internal">
        <lane id=":2078092359_6_0" index="0" disallow="tram rail_urban rail rail_electric rail_fast ship container cable_car subway aircraft wheelchair scooter drone" speed="13.89" length="14.48" shape="300320.18,-1642410.41 300321.86,-1642396.03"/>
    </edge>
    <edge id=":2078092359_7" function="internal">
        <lane id=":2078092359_7_0" index="0" disallow="tram rail_urban rail rail_electric rail_fast ship container cable_car subway aircraft wheelchair scooter drone" speed="7.31" length="11.74" shape="300320.18,-1642410.41 300319.93,-1642407.90 300318.50,-1642405.97 300315.89,-1642404.61 300312.10,-1642403.83"/>
    </edge>
    <edge id=":2078092363_0" function="internal">
        <lane id=":2078092363_0_0" index="0" disallow="tram rail_urban rail rail_electric rail_fast ship container cable_car subway aircraft wheelchair scooter drone" speed="6.51" length="9.04" shape="300438.33,-1642226.45 300437.70,-1642228.84 300436.46,-1642230.46 300434.59,-1642231.30 300432.11,-1642231.37"/>
    </edge>
    <edge id=":2078092363_1" function="internal">
        <lane id=":2078092363_1_0" index="0" disallow="tram rail_urban rail rail_electric rail_fast ship container cable_car subway aircraft wheelchair scooter drone" speed="13.89" length="14.41" shape="300438.33,-1642226.45 300436.66,-1642240.76"/>
    </edge>
    <edge id=":2078092363_2" function="internal">
        <lane id=":2078092363_2_0" index="0" disallow="tram rail_urban rail rail_electric rail_fast ship container cable_car subway aircraft wheelchair scooter drone" speed="6.51" length="9.04" shape="300446.43,-1642233.02 300444.04,-1642232.39 300442.42,-1642231.15 300441.58,-1642229.29 300441.51,-1642226.81"/>
    </edge>
    <edge id=":2078092363_3" function="internal">
        <lane id=":2078092363_3_0" index="0" disallow="tram rail_urban rail rail_electric rail_fast ship container cable_car subway aircraft wheelchair scooter drone" speed="22.22" length="14.41" shape="300446.43,-1642233.02 300432.11,-1642231.37"/>
        <lane id=":2078092363_3_1" index="1" disallow="tram rail_urban rail rail_electric rail_fast ship container cable_car subway aircraft wheelchair scooter drone" speed="22.22" length="14.41" shape="300446.06,-1642236.20 300431.75,-1642234.55"/>
    </edge>
    <edge id=":2078092363_5" function="internal">
        <lane id=":2078092363_5_0" index="0" disallow="tram rail_urban rail rail_electric rail_fast ship container cable_car subway aircraft wheelchair scooter drone" speed="7.34" length="11.74" shape="300446.06,-1642236.20 300442.20,-1642236.10 300439.34,-1642236.83 300437.50,-1642238.38 300436.66,-1642240.76"/>
    </edge>
    <edge id=":2078092363_6" function="internal">
        <lane id=":2078092363_6_0" index="0" disallow="tram rail_urban rail rail_electric rail_fast ship container cable_car subway aircraft wheelchair scooter drone" speed="13.89" length="14.42" shape="300439.84,-1642241.13 300441.51,-1642226.81"/>
    </edge>
    <edge id=":2078092363_7" function="internal">
        <lane id=":2078092363_7_0" index="0" disallow="tram rail_urban rail rail_electric rail_fast ship container cable_car subway aircraft wheelchair scooter drone" speed="7.32" length="11.73" shape="300439.84,-1642241.13 300439.58,-1642238.63 300438.15,-1642236.70 300435.54,-1642235.34 300431.75,-1642234.55"/>
    </edge>
    <edge id=":2078092375_0" function="internal">
        <lane id=":2078092375_0_0" index="0" disallow="tram rail_urban rail rail_electric rail_fast ship container cable_car subway aircraft wheelchair scooter drone" speed="13.89" length="14.62" shape="300399.53,-1642572.39 300397.93,-1642586.92"/>
    </edge>
    <edge id=":2078092375_1" function="internal">
        <lane id=":2078092375_1_0" index="0" disallow="tram rail_urban rail rail_electric rail_fast ship container cable_car subway aircraft wheelchair scooter drone" speed="7.59" length="12.08" shape="300399.53,-1642572.39 300399.86,-1642574.94 300401.35,-1642576.95 300404.02,-1642578.43 300407.86,-1642579.38"/>
    </edge>
    <edge id=":2078092375_2" function="internal">
        <lane id=":2078092375_2_0" index="0" disallow="tram rail_urban rail rail_electric rail_fast ship container cable_car subway aircraft wheelchair scooter drone" speed="6.44" length="9.03" shape="300401.11,-1642587.30 300401.75,-1642584.90 300403.01,-1642583.30 300404.88,-1642582.52 300407.37,-1642582.54"/>
    </edge>
    <edge id=":2078092375_3" function="internal">
        <lane id=":2078092375_3_0" index="0" disallow="tram rail_urban rail rail_electric rail_fast ship container cable_car subway aircraft wheelchair scooter drone" speed="13.89" length="14.67" shape="300401.11,-1642587.30 300402.72,-1642572.72"/>
    </edge>
    <edge id=":2078092375_4" function="internal">