<?xml version="1.0" encoding="UTF-8"?>

<!-- generated on 2025-10-23 19:59:16 by Eclipse SUMO netedit Version 1.22.0
<neteditConfiguration xmlns:xsi="http://www.w3.org/2001/XMLSchema-instance" xsi:noNamespaceSchemaLocation="http://sumo.dlr.de/xsd/neteditConfiguration.xsd">

    <input>
        <sumocfg-file value="C:\Users\EDMILSON\Documents\mapas TCC\Prox_EstadioLomanto_editar rou\Prox_EstadioLomanto.sumocfg"/>
        <additional-files value=""/>
        <route-files value="C:\Users\EDMILSON\Documents\mapas TCC\Prox_EstadioLomanto_editar rou\Prox_EstadioLomanto.rou.xml"/>
        <sumo-net-file value="C:\Users\EDMILSON\Documents\mapas TCC\Prox_EstadioLomanto_editar rou\Prox_EstadioLomanto.net.xml"/>
    </input>

    <output>
        <output-file value="C:\Users\EDMILSON\Documents\mapas TCC\Prox_EstadioLomanto_editar rou\Prox_EstadioLomanto.net.xml"/>
    </output>

    <processing>
        <geometry.min-radius.fix.railways value="false"/>
        <geometry.max-grade.fix value="false"/>
        <offset.disable-normalization value="true"/>
        <lefthand value="0"/>
    </processing>

    <junctions>
        <no-turnarounds value="true"/>
        <junctions.corner-detail value="5"/>
        <junctions.limit-turn-speed value="5.50"/>
        <rectangular-lane-cut value="0"/>
    </junctions>

    <pedestrian>
        <walkingareas value="0"/>
    </pedestrian>

</neteditConfiguration>
-->

<net version="1.20" junctionCornerDetail="5" limitTurnSpeed="5.50" xmlns:xsi="http://www.w3.org/2001/XMLSchema-instance" xsi:noNamespaceSchemaLocation="http://sumo.dlr.de/xsd/net_file.xsd">

    <location netOffset="0.00,0.00" convBoundary="301595.54,-1646369.50,305237.99,-1643202.78" origBoundary="-40.844035,-14.884750,-40.810384,-14.856013" projParameter="+proj=utm +zone=24 +ellps=WGS84 +datum=WGS84 +units=m +no_defs"/>

    <type id="highway.cycleway" priority="1" numLanes="1" speed="5.56" allow="bicycle" oneway="0" width="2.00"/>
    <type id="highway.footway" priority="1" numLanes="1" speed="2.78" allow="pedestrian" oneway="1" width="2.00"/>
    <type id="highway.living_street" priority="2" numLanes="1" speed="2.78" disallow="tram rail_urban rail rail_electric rail_fast ship container cable_car subway aircraft wheelchair scooter drone" oneway="0"/>
    <type id="highway.path" priority="1" numLanes="1" speed="5.56" allow="pedestrian bicycle" oneway="0" width="2.00"/>
    <type id="highway.primary" priority="12" numLanes="2" speed="27.78" disallow="tram rail_urban rail rail_electric rail_fast ship container cable_car subway aircraft wheelchair scooter drone" oneway="0"/>
    <type id="highway.primary_link" priority="7" numLanes="1" speed="22.22" disallow="tram rail_urban rail rail_electric rail_fast ship container cable_car subway aircraft wheelchair scooter drone" oneway="0"/>
    <type id="highway.residential" priority="3" numLanes="1" speed="13.89" disallow="tram rail_urban rail rail_electric rail_fast ship container cable_car subway aircraft wheelchair scooter drone" oneway="0"/>
    <type id="highway.secondary" priority="11" numLanes="1" speed="27.78" disallow="tram rail_urban rail rail_electric rail_fast ship container cable_car subway aircraft wheelchair scooter drone" oneway="0"/>
    <type id="highway.service" priority="1" numLanes="1" speed="5.56" allow="pedestrian delivery bicycle" oneway="0"/>
    <type id="highway.tertiary" priority="10" numLanes="1" speed="22.22" disallow="tram rail_urban rail rail_electric rail_fast ship container cable_car subway aircraft wheelchair scooter drone" oneway="0"/>

    <edge id=":10562368710_0" function="internal">
        <lane id=":10562368710_0_0" index="0" disallow="tram rail_urban rail rail_electric rail_fast ship container cable_car subway aircraft wheelchair scooter drone" speed="27.78" length="5.01" shape="303968.24,-1644503.09 303971.03,-1644507.24"/>
        <lane id=":10562368710_0_1" index="1" disallow="tram rail_urban rail rail_electric rail_fast ship container cable_car subway aircraft wheelchair scooter drone" speed="27.78" length="5.01" shape="303970.89,-1644501.30 303973.69,-1644505.45"/>
    </edge>
    <edge id=":10562368711_0" function="internal">
        <lane id=":10562368711_0_0" index="0" allow="bicycle" speed="5.56" length="5.18" width="2.00" shape="303975.74,-1644504.29 303972.89,-1644499.96"/>
    </edge>
    <edge id=":10562368711_1" function="internal">
        <lane id=":10562368711_1_0" index="0" allow="bicycle" speed="5.56" length="5.18" width="2.00" shape="303971.22,-1644501.06 303974.06,-1644505.39"/>
    </edge>
    <edge id=":10562368712_0" function="internal">
        <lane id=":10562368712_0_0" index="0" disallow="tram rail_urban rail rail_electric rail_fast ship container cable_car subway aircraft wheelchair scooter drone" speed="27.78" length="5.00" shape="303990.08,-1644494.48 303987.32,-1644490.31"/>
        <lane id=":10562368712_0_1" index="1" disallow="tram rail_urban rail rail_electric rail_fast ship container cable_car subway aircraft wheelchair scooter drone" speed="27.78" length="5.00" shape="303987.41,-1644496.25 303984.65,-1644492.08"/>
    </edge>
    <edge id=":11232749198_0" function="internal">
        <lane id=":11232749198_0_0" index="0" disallow="tram rail_urban rail rail_electric rail_fast ship container cable_car subway aircraft wheelchair scooter drone" speed="5.56" length="3.77" shape="303977.06,-1644931.57 303976.35,-1644932.41 303975.97,-1644933.10 303975.84,-1644933.86 303975.85,-1644934.97"/>
    </edge>
    <edge id=":11232749198_1" function="internal">
        <lane id=":11232749198_1_0" index="0" disallow="tram rail_urban rail rail_electric rail_fast ship container cable_car subway aircraft wheelchair scooter drone" speed="4.24" length="1.26" shape="303979.04,-1644934.83 303979.04,-1644934.46 303979.09,-1644934.20 303979.21,-1644933.98 303979.45,-1644933.70"/>
    </edge>
    <edge id=":11232749203_0" function="internal">
        <lane id=":11232749203_0_0" index="0" disallow="tram rail_urban rail rail_electric rail_fast ship container cable_car subway aircraft wheelchair scooter drone" speed="5.56" length="14.02" shape="304092.68,-1645023.45 304084.85,-1645011.82"/>
    </edge>
    <edge id=":11232749203_1" function="internal">
        <lane id=":11232749203_1_0" index="0" disallow="tram rail_urban rail rail_electric rail_fast ship container cable_car subway aircraft wheelchair scooter drone" speed="5.56" length="13.97" shape="304092.68,-1645023.45 304090.06,-1645020.67 304087.17,-1645019.37 304084.01,-1645019.56 304080.57,-1645021.22"/>
    </edge>
    <edge id=":11232749203_2" function="internal">
        <lane id=":11232749203_2_0" index="0" disallow="tram rail_urban rail rail_electric rail_fast ship container cable_car subway aircraft wheelchair scooter drone" speed="5.56" length="8.89" shape="304082.36,-1645023.88 304084.55,-1645022.81 304086.56,-1645022.70 304088.40,-1645023.52 304090.07,-1645025.29"/>
    </edge>
    <edge id=":11232749203_3" function="internal">
        <lane id=":11232749203_3_0" index="0" disallow="tram rail_urban rail rail_electric rail_fast ship container cable_car subway aircraft wheelchair scooter drone" speed="5.56" length="13.97" shape="304082.36,-1645023.88 304085.19,-1645021.32 304086.55,-1645018.45 304086.44,-1645015.29 304084.85,-1645011.82"/>
    </edge>
    <edge id=":11232749203_4" function="internal">
        <lane id=":11232749203_4_0" index="0" disallow="tram rail_urban rail rail_electric rail_fast ship container cable_car subway aircraft wheelchair scooter drone" speed="5.56" length="8.89" shape="304082.16,-1645013.55 304083.17,-1645015.76 304083.24,-1645017.77 304082.38,-1645019.59 304080.57,-1645021.22"/>
    </edge>
    <edge id=":11232749203_5" function="internal">
        <lane id=":11232749203_5_0" index="0" disallow="tram rail_urban rail rail_electric rail_fast ship container cable_car subway aircraft wheelchair scooter drone" speed="5.56" length="14.16" shape="304082.16,-1645013.55 304090.07,-1645025.29"/>
    </edge>
    <edge id=":11765502550_0" function="internal">
        <lane id=":11765502550_0_0" index="0" allow="pedestrian delivery bicycle" speed="5.01" length="5.03" shape="304205.54,-1644064.42 304204.93,-1644063.18 304204.87,-1644062.05 304205.36,-1644061.03 304206.40,-1644060.12"/>
    </edge>
    <edge id=":11765502550_1" function="internal">
        <lane id=":11765502550_1_0" index="0" allow="pedestrian delivery bicycle" speed="5.12" length="5.10" shape="304198.51,-1644065.24 304199.75,-1644064.68 304200.89,-1644064.65 304201.94,-1644065.17 304202.90,-1644066.23"/>
    </edge>
    <edge id=":11765502550_2" function="internal">
        <lane id=":11765502550_2_0" index="0" disallow="tram rail_urban rail rail_electric rail_fast ship container cable_car subway aircraft wheelchair scooter drone" speed="13.89" length="9.40" shape="304198.51,-1644065.24 304206.40,-1644060.12"/>
        <lane id=":11765502550_2_1" index="1" disallow="tram rail_urban rail rail_electric rail_fast ship container cable_car subway aircraft wheelchair scooter drone" speed="13.89" length="9.40" shape="304196.77,-1644062.56 304204.66,-1644057.44"/>
    </edge>
    <edge id=":11765502551_0" function="internal">
        <lane id=":11765502551_0_0" index="0" allow="pedestrian delivery bicycle" speed="5.08" length="5.05" shape="304254.77,-1644130.97 304253.54,-1644131.55 304252.40,-1644131.59 304251.37,-1644131.10 304250.42,-1644130.06"/>
    </edge>
    <edge id=":11765502551_1" function="internal">
        <lane id=":11765502551_1_0" index="0" disallow="tram rail_urban rail rail_electric rail_fast ship container cable_car subway aircraft wheelchair scooter drone" speed="13.89" length="9.40" shape="304254.77,-1644130.97 304246.94,-1644136.17"/>
    </edge>
    <edge id=":11765502551_2" function="internal">
        <lane id=":11765502551_2_0" index="0" disallow="tram rail_urban rail rail_electric rail_fast ship container cable_car subway aircraft wheelchair scooter drone" speed="13.89" length="9.40" shape="304248.72,-1644138.84 304256.55,-1644133.63"/>
    </edge>
    <edge id=":11765502551_3" function="internal">
        <lane id=":11765502551_3_0" index="0" allow="pedestrian delivery bicycle" speed="6.85" length="3.28" shape="304248.72,-1644138.84 304250.81,-1644136.97 304251.01,-1644136.54"/>
    </edge>
    <edge id=":11765502551_6" function="internal">
        <lane id=":11765502551_6_0" index="0" allow="pedestrian delivery bicycle" speed="6.85" length="6.95" shape="304251.01,-1644136.54 304251.79,-1644134.88 304251.66,-1644132.58 304250.42,-1644130.06"/>
    </edge>
    <edge id=":11765502551_4" function="internal">
        <lane id=":11765502551_4_0" index="0" allow="pedestrian delivery bicycle" speed="5.03" length="5.02" shape="304247.78,-1644131.87 304248.39,-1644133.10 304248.45,-1644134.23 304247.97,-1644135.26 304246.94,-1644136.17"/>
    </edge>
    <edge id=":11765502551_5" function="internal">
        <lane id=":11765502551_5_0" index="0" allow="pedestrian delivery bicycle" speed="6.89" length="10.16" shape="304247.78,-1644131.87 304249.67,-1644133.94 304251.76,-1644134.92 304254.05,-1644134.82 304256.55,-1644133.63"/>
    </edge>
    <edge id=":11793833101_0" function="internal">
        <lane id=":11793833101_0_0" index="0" disallow="tram rail_urban rail rail_electric rail_fast ship container cable_car subway aircraft wheelchair scooter drone" speed="13.89" length="0.28" shape="303999.39,-1644126.24 303999.15,-1644126.39"/>
    </edge>
    <edge id=":11793833101_1" function="internal">
        <lane id=":11793833101_1_0" index="0" disallow="tram rail_urban rail rail_electric rail_fast ship container cable_car subway aircraft wheelchair scooter drone" speed="13.89" length="0.15" shape="304000.91,-1644129.06 304001.04,-1644128.98"/>
    </edge>
    <edge id=":11793833102_0" function="internal">
        <lane id=":11793833102_0_0" index="0" disallow="tram rail_urban rail rail_electric rail_fast ship container cable_car subway aircraft wheelchair scooter drone" speed="6.14" length="9.06" shape="304102.33,-1644078.78 304100.05,-1644079.93 304098.08,-1644079.98 304096.40,-1644078.93 304095.03,-1644076.78"/>
    </edge>
    <edge id=":11793833102_1" function="internal">
        <lane id=":11793833102_1_0" index="0" disallow="tram rail_urban rail rail_electric rail_fast ship container cable_car subway aircraft wheelchair scooter drone" speed="13.89" length="14.39" shape="304102.33,-1644078.78 304099.35,-1644080.91 304096.52,-1644083.03 304093.75,-1644085.23 304090.96,-1644087.59"/>
    </edge>
    <edge id=":11793833102_2" function="internal">
        <lane id=":11793833102_2_0" index="0" disallow="tram rail_urban rail rail_electric rail_fast ship container cable_car subway aircraft wheelchair scooter drone" speed="13.89" length="14.05" shape="304093.06,-1644090.00 304095.81,-1644087.67 304098.49,-1644085.54 304101.23,-1644083.49 304104.17,-1644081.40"/>
    </edge>
    <edge id=":11793833102_3" function="internal">
        <lane id=":11793833102_3_0" index="0" disallow="tram rail_urban rail rail_electric rail_fast ship container cable_car subway aircraft wheelchair scooter drone" speed="9.09" length="3.63" shape="304093.06,-1644090.00 304095.32,-1644087.31 304095.36,-1644087.19"/>
    </edge>
    <edge id=":11793833102_6" function="internal">
        <lane id=":11793833102_6_0" index="0" disallow="tram rail_urban rail rail_electric rail_fast ship container cable_car subway aircraft wheelchair scooter drone" speed="9.09" length="10.79" shape="304095.36,-1644087.19 304096.40,-1644084.21 304096.30,-1644080.70 304095.03,-1644076.78"/>
    </edge>
    <edge id=":11793833102_4" function="internal">
        <lane id=":11793833102_4_0" index="0" disallow="tram rail_urban rail rail_electric rail_fast ship container cable_car subway aircraft wheelchair scooter drone" speed="7.76" length="10.31" shape="304092.11,-1644078.10 304093.07,-1644080.97 304093.20,-1644083.51 304092.49,-1644085.72 304090.96,-1644087.59"/>
    </edge>
    <edge id=":11793833102_5" function="internal">
        <lane id=":11793833102_5_0" index="0" disallow="tram rail_urban rail rail_electric rail_fast ship container cable_car subway aircraft wheelchair scooter drone" speed="7.71" length="14.95" shape="304092.11,-1644078.10 304094.38,-1644081.65 304097.14,-1644083.38 304100.41,-1644083.30 304104.17,-1644081.40"/>
    </edge>
    <edge id=":11793833107_0" function="internal">
        <lane id=":11793833107_0_0" index="0" disallow="tram rail_urban rail rail_electric rail_fast ship container cable_car subway aircraft wheelchair scooter drone" speed="6.79" length="3.59" shape="304105.03,-1644059.36 304104.19,-1644058.73 304103.52,-1644058.40 304102.79,-1644058.30 304101.74,-1644058.33"/>
    </edge>
    <edge id=":11793833107_1" function="internal">
        <lane id=":11793833107_1_0" index="0" disallow="tram rail_urban rail rail_electric rail_fast ship container cable_car subway aircraft wheelchair scooter drone" speed="4.28" length="1.20" shape="304101.94,-1644061.53 304102.29,-1644061.51 304102.54,-1644061.55 304102.76,-1644061.66 304103.04,-1644061.87"/>
    </edge>
    <edge id=":11793833119_0" function="internal">
        <lane id=":11793833119_0_0" index="0" disallow="tram rail_urban rail rail_electric rail_fast ship container cable_car subway aircraft wheelchair scooter drone" speed="6.56" length="9.09" shape="303991.21,-1644131.64 303988.95,-1644132.72 303986.89,-1644132.83 303985.02,-1644131.97 303983.35,-1644130.15"/>
    </edge>
    <edge id=":11793833119_1" function="internal">
        <lane id=":11793833119_1_0" index="0" disallow="tram rail_urban rail rail_electric rail_fast ship container cable_car subway aircraft wheelchair scooter drone" speed="7.98" length="14.23" shape="303991.21,-1644131.64 303988.29,-1644134.23 303986.91,-1644137.13 303987.07,-1644140.34 303988.78,-1644143.85"/>
    </edge>
    <edge id=":11793833119_2" function="internal">
        <lane id=":11793833119_2_0" index="0" disallow="tram rail_urban rail rail_electric rail_fast ship container cable_car subway aircraft wheelchair scooter drone" speed="6.49" length="9.03" shape="303991.43,-1644142.06 303990.35,-1644139.83 303990.25,-1644137.79 303991.12,-1644135.95 303992.97,-1644134.31"/>
    </edge>
    <edge id=":11793833119_3" function="internal">
        <lane id=":11793833119_3_0" index="0" disallow="tram rail_urban rail rail_electric rail_fast ship container cable_car subway aircraft wheelchair scooter drone" speed="13.89" length="14.39" shape="303991.43,-1644142.06 303983.35,-1644130.15"/>
    </edge>
    <edge id=":11793833119_4" function="internal">
        <lane id=":11793833119_4_0" index="0" disallow="tram rail_urban rail rail_electric rail_fast ship container cable_car subway aircraft wheelchair scooter drone" speed="13.89" length="14.37" shape="303980.71,-1644131.96 303988.78,-1644143.85"/>
    </edge>
    <edge id=":11793833119_5" function="internal">
        <lane id=":11793833119_5_0" index="0" disallow="tram rail_urban rail rail_electric rail_fast ship container cable_car subway aircraft wheelchair scooter drone" speed="8.05" length="4.02" shape="303980.71,-1644131.96 303983.32,-1644134.81 303983.46,-1644134.87"/>
    </edge>
    <edge id=":11793833119_6" function="internal">
        <lane id=":11793833119_6_0" index="0" disallow="tram rail_urban rail rail_electric rail_fast ship container cable_car subway aircraft wheelchair scooter drone" speed="8.05" length="10.18" shape="303983.46,-1644134.87 303986.23,-1644136.15 303989.45,-1644135.98 303992.97,-1644134.31"/>
    </edge>
    <edge id=":11911272414_0" function="internal">
        <lane id=":11911272414_0_0" index="0" allow="pedestrian delivery bicycle" speed="4.68" length="6.69" shape="303604.47,-1644549.43 303604.20,-1644551.56 303603.48,-1644552.52 303602.30,-1644552.31 303600.66,-1644550.93"/>
    </edge>
    <edge id=":11911272414_1" function="internal">
        <lane id=":11911272414_1_0" index="0" allow="pedestrian delivery bicycle" speed="5.56" length="12.63" shape="303604.47,-1644549.43 303604.29,-1644552.87 303604.16,-1644555.87 303604.54,-1644558.73 303605.90,-1644561.73"/>
    </edge>
    <edge id=":11911272414_2" function="internal">
        <lane id=":11911272414_2_0" index="0" allow="pedestrian delivery bicycle" speed="5.56" length="10.88" shape="303608.61,-1644560.03 303607.33,-1644557.30 303607.11,-1644555.04 303607.41,-1644552.63 303607.67,-1644549.47"/>
    </edge>
    <edge id=":11911272414_3" function="internal">
        <lane id=":11911272414_3_0" index="0" allow="pedestrian delivery bicycle" speed="5.56" length="12.12" shape="303608.61,-1644560.03 303606.73,-1644557.33 303604.92,-1644555.25 303602.98,-1644553.28 303600.66,-1644550.93"/>
    </edge>
    <edge id=":11911272414_4" function="internal">
        <lane id=":11911272414_4_0" index="0" allow="pedestrian delivery bicycle" speed="5.56" length="11.49" shape="303598.34,-1644553.13 303600.60,-1644555.41 303602.41,-1644557.20 303604.08,-1644559.11 303605.90,-1644561.73"/>
    </edge>
    <edge id=":11911272414_5" function="internal">
        <lane id=":11911272414_5_0" index="0" allow="pedestrian delivery bicycle" speed="5.56" length="16.39" shape="303598.34,-1644553.13 303602.36,-1644556.51 303605.25,-1644557.03 303607.02,-1644554.68 303607.67,-1644549.47"/>
    </edge>
    <edge id=":11911395069_0" function="internal">
        <lane id=":11911395069_0_0" index="0" allow="pedestrian delivery bicycle" speed="5.56" length="9.97" shape="303447.95,-1644587.96 303445.45,-1644589.53 303443.77,-1644590.66 303442.14,-1644591.87 303439.82,-1644593.70"/>
    </edge>
    <edge id=":11911395069_1" function="internal">
        <lane id=":11911395069_1_0" index="0" allow="pedestrian delivery bicycle" speed="5.56" length="10.50" shape="303447.95,-1644587.96 303445.89,-1644589.74 303444.89,-1644591.85 303444.96,-1644594.29 303446.09,-1644597.06"/>
    </edge>
    <edge id=":11911395069_2" function="internal">
        <lane id=":11911395069_2_0" index="0" allow="pedestrian delivery bicycle" speed="5.31" length="5.49" shape="303448.88,-1644595.48 303448.24,-1644593.98 303448.16,-1644592.68 303448.63,-1644591.58 303449.64,-1644590.68"/>
    </edge>
    <edge id=":11911395069_3" function="internal">
        <lane id=":11911395069_3_0" index="0" allow="pedestrian delivery bicycle" speed="5.56" length="10.94" shape="303448.88,-1644595.48 303447.00,-1644593.06 303444.87,-1644591.96 303442.47,-1644592.17 303439.82,-1644593.70"/>
    </edge>
    <edge id=":11911395069_4" function="internal">
        <lane id=":11911395069_4_0" index="0" allow="pedestrian delivery bicycle" speed="4.89" length="5.19" shape="303441.79,-1644596.21 303443.05,-1644595.49 303444.19,-1644595.39 303445.20,-1644595.91 303446.09,-1644597.06"/>
    </edge>
    <edge id=":11911395069_5" function="internal">
        <lane id=":11911395069_5_0" index="0" allow="pedestrian delivery bicycle" speed="5.56" length="9.61" shape="303441.79,-1644596.21 303444.04,-1644594.45 303445.60,-1644593.28 303447.22,-1644592.19 303449.64,-1644590.68"/>
    </edge>
    <edge id=":1207646694_0" function="internal">
        <lane id=":1207646694_0_0" index="0" disallow="tram rail_urban rail rail_electric rail_fast ship container cable_car subway aircraft wheelchair scooter drone" speed="18.05" length="16.94" shape="303305.16,-1644781.47 303303.87,-1644777.63 303302.51,-1644773.42 303301.25,-1644769.19 303300.26,-1644765.26"/>
    </edge>
    <edge id=":1207646694_1" function="internal">
        <lane id=":1207646694_1_0" index="0" disallow="tram rail_urban rail rail_electric rail_fast ship container cable_car subway aircraft wheelchair scooter drone" speed="7.45" length="19.72" shape="303305.16,-1644781.47 303302.48,-1644775.71 303299.61,-1644773.69 303296.55,-1644775.41 303293.30,-1644780.87"/>
    </edge>
    <edge id=":1207646694_2" function="internal">
        <lane id=":1207646694_2_0" index="0" disallow="tram rail_urban rail rail_electric rail_fast ship container cable_car subway aircraft wheelchair scooter drone" speed="5.46" length="9.84" shape="303296.21,-1644782.19 303297.83,-1644779.47 303299.36,-1644778.62 303300.79,-1644779.62 303302.13,-1644782.50"/>
    </edge>
    <edge id=":1207646694_3" function="internal">
        <lane id=":1207646694_3_0" index="0" disallow="tram rail_urban rail rail_electric rail_fast ship container cable_car subway aircraft wheelchair scooter drone" speed="16.12" length="17.63" shape="303296.21,-1644782.19 303297.87,-1644778.32 303299.41,-1644773.86 303300.37,-1644769.33 303300.26,-1644765.26"/>
    </edge>
    <edge id=":1207646694_4" function="internal">
        <lane id=":1207646694_4_0" index="0" disallow="tram rail_urban rail rail_electric rail_fast ship container cable_car subway aircraft wheelchair scooter drone" speed="15.21" length="15.66" shape="303297.14,-1644765.94 303297.27,-1644769.69 303296.39,-1644773.53 303294.93,-1644777.30 303293.30,-1644780.87"/>
    </edge>
    <edge id=":1207646694_5" function="internal">
        <lane id=":1207646694_5_0" index="0" disallow="tram rail_urban rail rail_electric rail_fast ship container cable_car subway aircraft wheelchair scooter drone" speed="18.05" length="17.30" shape="303297.14,-1644765.94 303298.14,-1644769.92 303299.43,-1644774.27 303300.82,-1644778.60 303302.13,-1644782.50"/>
    </edge>
    <edge id=":1207646697_0" function="internal">
        <lane id=":1207646697_0_0" index="0" disallow="tram rail_urban rail rail_electric rail_fast ship container cable_car subway aircraft wheelchair scooter drone" speed="13.89" length="8.95" shape="303191.34,-1644744.34 303199.17,-1644739.74"/>
        <lane id=":1207646697_0_1" index="1" disallow="tram rail_urban rail rail_electric rail_fast ship container cable_car subway aircraft wheelchair scooter drone" speed="13.89" length="8.95" shape="303189.76,-1644741.55 303197.38,-1644737.09"/>
    </edge>
    <edge id=":1207646697_2" function="internal">
        <lane id=":1207646697_2_0" index="0" disallow="tram rail_urban rail rail_electric rail_fast ship container cable_car subway aircraft wheelchair scooter drone" speed="7.00" length="8.40" shape="303189.66,-1644736.43 303191.58,-1644737.70 303193.51,-1644738.23 303195.44,-1644738.03 303197.38,-1644737.09"/>
    </edge>
    <edge id=":1207646779_0" function="internal">
        <lane id=":1207646779_0_0" index="0" disallow="tram rail_urban rail rail_electric rail_fast ship container cable_car subway aircraft wheelchair scooter drone" speed="8.11" length="7.88" shape="303277.20,-1644687.03 303278.77,-1644686.29 303280.55,-1644686.02 303282.56,-1644686.22 303284.79,-1644686.90"/>
    </edge>
    <edge id=":1207646779_1" function="internal">
        <lane id=":1207646779_1_0" index="0" disallow="tram rail_urban rail rail_electric rail_fast ship container cable_car subway aircraft wheelchair scooter drone" speed="13.89" length="8.12" shape="303277.20,-1644687.03 303284.01,-1644682.70"/>
        <lane id=":1207646779_1_1" index="1" disallow="tram rail_urban rail rail_electric rail_fast ship container cable_car subway aircraft wheelchair scooter drone" speed="13.89" length="8.12" shape="303275.41,-1644684.38 303282.30,-1644679.99"/>
    </edge>
    <edge id=":1207646841_0" function="internal">
        <lane id=":1207646841_0_0" index="0" disallow="tram rail_urban rail rail_electric rail_fast ship container cable_car subway aircraft wheelchair scooter drone" speed="13.21" length="8.71" shape="303309.69,-1644670.88 303310.64,-1644668.45 303311.26,-1644666.71 303312.21,-1644665.23 303314.14,-1644663.64"/>
    </edge>
    <edge id=":1207646841_1" function="internal">
        <lane id=":1207646841_1_0" index="0" disallow="tram rail_urban rail rail_electric rail_fast ship container cable_car subway aircraft wheelchair scooter drone" speed="13.89" length="8.69" shape="303306.74,-1644668.30 303314.14,-1644663.64"/>
        <lane id=":1207646841_1_1" index="1" disallow="tram rail_urban rail rail_electric rail_fast ship container cable_car subway aircraft wheelchair scooter drone" speed="13.89" length="8.69" shape="303305.03,-1644665.59 303312.34,-1644660.99"/>
    </edge>
    <edge id=":1207646845_0" function="internal">
        <lane id=":1207646845_0_0" index="0" disallow="tram rail_urban rail rail_electric rail_fast ship container cable_car subway aircraft wheelchair scooter drone" speed="22.22" length="0.31" shape="303165.98,-1644927.02 303165.75,-1644927.23"/>
    </edge>
    <edge id=":1207646845_1" function="internal">
        <lane id=":1207646845_1_0" index="0" disallow="tram rail_urban rail rail_electric rail_fast ship container cable_car subway aircraft wheelchair scooter drone" speed="22.22" length="0.28" shape="303167.89,-1644929.61 303168.10,-1644929.42"/>
    </edge>
    <edge id=":1207646862_0" function="internal">
        <lane id=":1207646862_0_0" index="0" disallow="tram rail_urban rail rail_electric rail_fast ship container cable_car subway aircraft wheelchair scooter drone" speed="22.22" length="6.44" shape="303299.10,-1644702.57 303299.40,-1644700.72 303299.22,-1644699.39 303299.04,-1644698.06 303299.32,-1644696.20"/>
    </edge>
    <edge id=":1207646862_1" function="internal">
        <lane id=":1207646862_1_0" index="0" disallow="tram rail_urban rail rail_electric rail_fast ship container cable_car subway aircraft wheelchair scooter drone" speed="8.55" length="5.45" shape="303295.31,-1644696.42 303295.96,-1644697.90 303296.35,-1644698.99 303296.40,-1644700.09 303296.04,-1644701.62"/>
    </edge>
    <edge id=":1207646862_2" function="internal">
        <lane id=":1207646862_2_0" index="0" disallow="tram rail_urban rail rail_electric rail_fast ship container cable_car subway aircraft wheelchair scooter drone" speed="4.72" length="2.48" shape="303295.31,-1644696.42 303296.43,-1644698.47 303296.55,-1644698.55"/>
    </edge>
    <edge id=":1207646862_3" function="internal">
        <lane id=":1207646862_3_0" index="0" disallow="tram rail_urban rail rail_electric rail_fast ship container cable_car subway aircraft wheelchair scooter drone" speed="4.72" length="4.65" shape="303296.55,-1644698.55 303297.47,-1644699.12 303298.43,-1644698.36 303299.32,-1644696.20"/>
    </edge>
    <edge id=":1207646864_0" function="internal">
        <lane id=":1207646864_0_0" index="0" disallow="tram rail_urban rail rail_electric rail_fast ship container cable_car subway aircraft wheelchair scooter drone" speed="13.89" length="8.51" shape="303185.78,-1644720.32 303178.80,-1644725.30"/>
        <lane id=":1207646864_0_1" index="1" disallow="tram rail_urban rail rail_electric rail_fast ship container cable_car subway aircraft wheelchair scooter drone" speed="13.89" length="8.51" shape="303187.56,-1644722.98 303180.68,-1644727.89"/>
    </edge>
    <edge id=":1207646864_2" function="internal">
        <lane id=":1207646864_2_0" index="0" disallow="tram rail_urban rail rail_electric rail_fast ship container cable_car subway aircraft wheelchair scooter drone" speed="6.92" length="7.99" shape="303187.56,-1644722.98 303186.07,-1644724.33 303185.21,-1644725.96 303184.97,-1644727.86 303185.35,-1644730.05"/>
    </edge>
    <edge id=":1504321972_0" function="internal">
        <lane id=":1504321972_0_0" index="0" disallow="tram rail_urban rail rail_electric rail_fast ship container cable_car subway aircraft wheelchair scooter drone" speed="22.22" length="14.21" shape="302897.02,-1644564.97 302885.98,-1644556.01"/>
    </edge>
    <edge id=":1504321972_1" function="internal">
        <lane id=":1504321972_1_0" index="0" disallow="tram rail_urban rail rail_electric rail_fast ship container cable_car subway aircraft wheelchair scooter drone" speed="7.83" length="4.05" shape="302897.02,-1644564.97 302893.49,-1644562.97"/>
    </edge>
    <edge id=":1504321972_6" function="internal">