<?xml version="1.0" encoding="UTF-8"?>

<!-- generated on 2025-10-23 19:59:18 by Eclipse SUMO sumo Version 1.22.0
-->

<sumoConfiguration xmlns:xsi="http://www.w3.org/2001/XMLSchema-instance" xsi:noNamespaceSchemaLocation="http://sumo.dlr.de/xsd/sumoConfiguration.xsd">

    <input>
        <net-file value="Prox_EstadioLomanto.net.xml"/>
        <route-files value="Prox_EstadioLomanto.rou.xml"/>
    </input>

</sumoConfiguration>
