<?xml version="1.0" encoding="UTF-8"?>

<routes xmlns:xsi="http://www.w3.org/2001/XMLSchema-instance" xsi:noNamespaceSchemaLocation="http://sumo.dlr.de/xsd/routes_file.xsd">
    <vType id="DEFAULT_VEHTYPE" vClass="passenger" />
    <vType id="authority" vClass="authority" guiShape="police"/>
    <vType id="emergency" vClass="emergency" guiShape="emergency" width="1.80" height="1.50"/>
    <vType id="firebrigade" vClass="emergency" guiShape="firebrigade" width="1.80" height="1.50"/>
    
    <trip id="t_0" type="DEFAULT_VEHTYPE" depart="0.00" from="425837447#5" to="1392257529#4"/>
    <trip id="t_1" type="DEFAULT_VEHTYPE" depart="0.00" from="425837447#5" to="1062732625#4"/>
    <trip id="t_2" type="DEFAULT_VEHTYPE" depart="0.00" from="425837447#5" to="684279879#1"/>
    <trip id="t_3" type="DEFAULT_VEHTYPE" depart="0.00" from="425837447#5" to="292975294"/>
    <trip id="t_4" type="DEFAULT_VEHTYPE" depart="0.00" from="292972241#3" to="1392257529#4"/>
    <trip id="t_5" type="DEFAULT_VEHTYPE" depart="0.00" from="292972241#3" to="1062732625#4"/>
    <trip id="t_6" type="DEFAULT_VEHTYPE" depart="0.00" from="292972241#3" to="684279879#1"/>
    <trip id="t_7" type="DEFAULT_VEHTYPE" depart="0.00" from="292972241#3" to="292975294"/>
    <trip id="t_8" type="DEFAULT_VEHTYPE" depart="0.00" from="467619865#2" to="1392257529#4"/>
    <trip id="t_9" type="DEFAULT_VEHTYPE" depart="0.00" from="467619865#2" to="1062732625#4"/>
    <trip id="t_10" type="DEFAULT_VEHTYPE" depart="0.00" from="467619865#2" to="684279879#1"/>
    <trip id="t_11" type="DEFAULT_VEHTYPE" depart="0.00" from="467619865#2" to="292975294"/>
    <trip id="t_12" type="DEFAULT_VEHTYPE" depart="0.00" from="-467619865#1" to="1392257529#4"/>
    <trip id="t_13" type="DEFAULT_VEHTYPE" depart="0.00" from="-467619865#1" to="1062732625#4"/>
    <trip id="t_14" type="DEFAULT_VEHTYPE" depart="0.00" from="-467619865#1" to="684279879#1"/>
    <trip id="t_15" type="DEFAULT_VEHTYPE" depart="0.00" from="-467619865#1" to="292975294"/>
    <trip id="t_16" type="DEFAULT_VEHTYPE" depart="0.00" from="425837447#4" to="1392257529#4"/>
    <trip id="t_17" type="DEFAULT_VEHTYPE" depart="0.00" from="425837447#4" to="1062732625#4"/>
    <trip id="t_18" type="DEFAULT_VEHTYPE" depart="0.00" from="425837447#4" to="684279879#1"/>
    <trip id="t_19" type="DEFAULT_VEHTYPE" depart="0.00" from="425837447#4" to="292975294"/>
    <trip id="t_20" type="DEFAULT_VEHTYPE" depart="0.00" from="292972241#4" to="1392257529#4"/>
    <trip id="t_21" type="DEFAULT_VEHTYPE" depart="0.00" from="292972241#4" to="1062732625#4"/>
    <trip id="t_22" type="DEFAULT_VEHTYPE" depart="0.00" from="292972241#4" to="684279879#1"/>
    <trip id="t_23" type="DEFAULT_VEHTYPE" depart="0.00" from="292972241#4" to="292975294"/>
    <trip id="t_24" type="DEFAULT_VEHTYPE" depart="0.00" from="1392257529#4" to="425837447#5"/>
    <trip id="t_25" type="DEFAULT_VEHTYPE" depart="0.00" from="1392257529#4" to="292972241#3"/>
    <trip id="t_26" type="DEFAULT_VEHTYPE" depart="0.00" from="1392257529#4" to="467619865#2"/>
    <trip id="t_27" type="DEFAULT_VEHTYPE" depart="0.00" from="1392257529#4" to="-467619865#1"/>
    <trip id="t_28" type="DEFAULT_VEHTYPE" depart="0.00" from="1062732625#4" to="425837447#5"/>
    <trip id="t_29" type="DEFAULT_VEHTYPE" depart="0.00" from="1062732625#4" to="292972241#3"/>
    <trip id="t_30" type="DEFAULT_VEHTYPE" depart="0.00" from="1062732625#4" to="467619865#2"/>
    <trip id="t_31" type="DEFAULT_VEHTYPE" depart="0.00" from="1062732625#4" to="-467619865#1"/>
    <trip id="t_32" type="DEFAULT_VEHTYPE" depart="0.00" from="684279879#1" to="425837447#5"/>
    <trip id="t_33" type="DEFAULT_VEHTYPE" depart="0.00" from="684279879#1" to="292972241#3"/>
    <trip id="t_34" type="DEFAULT_VEHTYPE" depart="0.00" from="684279879#1" to="467619865#2"/>
    <trip id="t_35" type="DEFAULT_VEHTYPE" depart="0.00" from="684279879#1" to="-467619865#1"/>
    <trip id="t_36" type="DEFAULT_VEHTYPE" depart="0.00" from="292975294" to="425837447#5"/>
    <trip id="t_37" type="DEFAULT_VEHTYPE" depart="0.00" from="292975294" to="292972241#3"/>
    <trip id="t_38" type="DEFAULT_VEHTYPE" depart="0.00" from="292975294" to="467619865#2"/>
    <trip id="t_39" type="DEFAULT_VEHTYPE" depart="0.00" from="292975294" to="-467619865#1"/>

    <trip id="t_40" type="authority" depart="0.00" from="425837447#5" to="1392257529#4"/>
    <trip id="t_41" type="authority" depart="0.00" from="1062732625#4" to="292972241#3"/>
    <trip id="t_42" type="authority" depart="0.00" from="684279879#1" to="467619865#2"/>

    <trip id="t_43" type="emergency" depart="0.00" from="292972241#3" to="292975294"/>
    <trip id="t_44" type="emergency" depart="0.00" from="425837447#4" to="684279879#1"/>
    <trip id="t_45" type="emergency" depart="0.00" from="292972241#4" to="1062732625#4"/>
    <trip id="t_46" type="emergency" depart="0.00" from="467619865#2" to="1392257529#4"/>
    <trip id="t_47" type="emergency" depart="0.00" from="-467619865#1" to="684279879#1"/>

    <trip id="t_48" type="firebrigade" depart="0.00" from="684279879#1" to="425837447#5"/>
    <trip id="t_49" type="firebrigade" depart="0.00" from="292972241#3" to="1392257529#4"/>
</routes>